
---------- Begin Simulation Statistics ----------
simSeconds                                   0.000238                       # Number of seconds simulated (Second)
simTicks                                    238349500                       # Number of ticks simulated (Tick)
finalTick                                   238349500                       # Number of ticks from beginning of simulation (restored from checkpoints and never reset) (Tick)
simFreq                                  1000000000000                       # The number of ticks per simulated second ((Tick/Second))
hostSeconds                                     19.84                       # Real time elapsed on the host (Second)
hostTickRate                                 12016528                       # The number of ticks simulated per host second (ticks/s) ((Tick/Second))
hostMemory                                    1456448                       # Number of bytes of host memory used (Byte)
simInsts                                      1797846                       # Number of instructions simulated (Count)
simOps                                        3274650                       # Number of ops (including micro ops) simulated (Count)
hostInstRate                                    90639                       # Simulator instruction rate (inst/s) ((Count/Second))
hostOpRate                                     165093                       # Simulator op (including micro ops) rate (op/s) ((Count/Second))
system.clk_domain.clock                          1000                       # Clock period in ticks (Tick)
system.cpu0.numCycles                          439808                       # Number of cpu cycles simulated (Cycle)
system.cpu0.cpi                              4.022021                       # CPI: cycles per instruction (core level) ((Cycle/Count))
system.cpu0.ipc                              0.248631                       # IPC: instructions per cycle (core level) ((Count/Cycle))
system.cpu0.numWorkItemsStarted                     0                       # Number of work items this cpu started (Count)
system.cpu0.numWorkItemsCompleted                   0                       # Number of work items this cpu completed (Count)
system.cpu0.instsAdded                         306111                       # Number of instructions added to the IQ (excludes non-spec) (Count)
system.cpu0.nonSpecInstsAdded                      80                       # Number of non-speculative instructions added to the IQ (Count)
system.cpu0.instsIssued                        271006                       # Number of instructions issued (Count)
system.cpu0.squashedInstsIssued                   513                       # Number of squashed instructions issued (Count)
system.cpu0.squashedInstsExamined              105475                       # Number of squashed instructions iterated over during squash; mainly for profiling (Count)
system.cpu0.squashedOperandsExamined           208896                       # Number of squashed operands that are examined and possibly removed from graph (Count)
system.cpu0.squashedNonSpecRemoved                 20                       # Number of squashed non-spec instructions that were removed (Count)
system.cpu0.numIssuedDist::samples             318060                       # Number of insts issued each cycle (Count)
system.cpu0.numIssuedDist::mean              0.852059                       # Number of insts issued each cycle (Count)
system.cpu0.numIssuedDist::stdev             1.839038                       # Number of insts issued each cycle (Count)
system.cpu0.numIssuedDist::underflows               0      0.00%      0.00% # Number of insts issued each cycle (Count)
system.cpu0.numIssuedDist::0                   243704     76.62%     76.62% # Number of insts issued each cycle (Count)
system.cpu0.numIssuedDist::1                    14322      4.50%     81.12% # Number of insts issued each cycle (Count)
system.cpu0.numIssuedDist::2                    12043      3.79%     84.91% # Number of insts issued each cycle (Count)
system.cpu0.numIssuedDist::3                    12602      3.96%     88.87% # Number of insts issued each cycle (Count)
system.cpu0.numIssuedDist::4                     9763      3.07%     91.94% # Number of insts issued each cycle (Count)
system.cpu0.numIssuedDist::5                     9718      3.06%     95.00% # Number of insts issued each cycle (Count)
system.cpu0.numIssuedDist::6                     7568      2.38%     97.38% # Number of insts issued each cycle (Count)
system.cpu0.numIssuedDist::7                     4978      1.57%     98.94% # Number of insts issued each cycle (Count)
system.cpu0.numIssuedDist::8                     3362      1.06%    100.00% # Number of insts issued each cycle (Count)
system.cpu0.numIssuedDist::overflows                0      0.00%    100.00% # Number of insts issued each cycle (Count)
system.cpu0.numIssuedDist::min_value                0                       # Number of insts issued each cycle (Count)
system.cpu0.numIssuedDist::max_value                8                       # Number of insts issued each cycle (Count)
system.cpu0.numIssuedDist::total               318060                       # Number of insts issued each cycle (Count)
system.cpu0.statFuBusy::No_OpClass                  0      0.00%      0.00% # attempts to use FU when none available (Count)
system.cpu0.statFuBusy::IntAlu                   3158     67.84%     67.84% # attempts to use FU when none available (Count)
system.cpu0.statFuBusy::IntMult                     0      0.00%     67.84% # attempts to use FU when none available (Count)
system.cpu0.statFuBusy::IntDiv                      0      0.00%     67.84% # attempts to use FU when none available (Count)
system.cpu0.statFuBusy::FloatAdd                    0      0.00%     67.84% # attempts to use FU when none available (Count)
system.cpu0.statFuBusy::FloatCmp                    0      0.00%     67.84% # attempts to use FU when none available (Count)
system.cpu0.statFuBusy::FloatCvt                    0      0.00%     67.84% # attempts to use FU when none available (Count)
system.cpu0.statFuBusy::FloatMult                   0      0.00%     67.84% # attempts to use FU when none available (Count)
system.cpu0.statFuBusy::FloatMultAcc                0      0.00%     67.84% # attempts to use FU when none available (Count)
system.cpu0.statFuBusy::FloatDiv                    0      0.00%     67.84% # attempts to use FU when none available (Count)
system.cpu0.statFuBusy::FloatMisc                   0      0.00%     67.84% # attempts to use FU when none available (Count)
system.cpu0.statFuBusy::FloatSqrt                   0      0.00%     67.84% # attempts to use FU when none available (Count)
system.cpu0.statFuBusy::SimdAdd                     0      0.00%     67.84% # attempts to use FU when none available (Count)
system.cpu0.statFuBusy::SimdAddAcc                  0      0.00%     67.84% # attempts to use FU when none available (Count)
system.cpu0.statFuBusy::SimdAlu                    17      0.37%     68.21% # attempts to use FU when none available (Count)
system.cpu0.statFuBusy::SimdCmp                     0      0.00%     68.21% # attempts to use FU when none available (Count)
system.cpu0.statFuBusy::SimdCvt                    29      0.62%     68.83% # attempts to use FU when none available (Count)
system.cpu0.statFuBusy::SimdMisc                    0      0.00%     68.83% # attempts to use FU when none available (Count)
system.cpu0.statFuBusy::SimdMult                    0      0.00%     68.83% # attempts to use FU when none available (Count)
system.cpu0.statFuBusy::SimdMultAcc                 0      0.00%     68.83% # attempts to use FU when none available (Count)
system.cpu0.statFuBusy::SimdMatMultAcc              0      0.00%     68.83% # attempts to use FU when none available (Count)
system.cpu0.statFuBusy::SimdShift                  48      1.03%     69.86% # attempts to use FU when none available (Count)
system.cpu0.statFuBusy::SimdShiftAcc                0      0.00%     69.86% # attempts to use FU when none available (Count)
system.cpu0.statFuBusy::SimdDiv                     0      0.00%     69.86% # attempts to use FU when none available (Count)
system.cpu0.statFuBusy::SimdSqrt                    0      0.00%     69.86% # attempts to use FU when none available (Count)
system.cpu0.statFuBusy::SimdFloatAdd                0      0.00%     69.86% # attempts to use FU when none available (Count)
system.cpu0.statFuBusy::SimdFloatAlu                0      0.00%     69.86% # attempts to use FU when none available (Count)
system.cpu0.statFuBusy::SimdFloatCmp                0      0.00%     69.86% # attempts to use FU when none available (Count)
system.cpu0.statFuBusy::SimdFloatCvt                0      0.00%     69.86% # attempts to use FU when none available (Count)
system.cpu0.statFuBusy::SimdFloatDiv                0      0.00%     69.86% # attempts to use FU when none available (Count)
system.cpu0.statFuBusy::SimdFloatMisc               0      0.00%     69.86% # attempts to use FU when none available (Count)
system.cpu0.statFuBusy::SimdFloatMult               0      0.00%     69.86% # attempts to use FU when none available (Count)
system.cpu0.statFuBusy::SimdFloatMultAcc            0      0.00%     69.86% # attempts to use FU when none available (Count)
system.cpu0.statFuBusy::SimdFloatMatMultAcc            0      0.00%     69.86% # attempts to use FU when none available (Count)
system.cpu0.statFuBusy::SimdFloatSqrt               0      0.00%     69.86% # attempts to use FU when none available (Count)
system.cpu0.statFuBusy::SimdReduceAdd               0      0.00%     69.86% # attempts to use FU when none available (Count)
system.cpu0.statFuBusy::SimdReduceAlu               0      0.00%     69.86% # attempts to use FU when none available (Count)
system.cpu0.statFuBusy::SimdReduceCmp               0      0.00%     69.86% # attempts to use FU when none available (Count)
system.cpu0.statFuBusy::SimdFloatReduceAdd            0      0.00%     69.86% # attempts to use FU when none available (Count)
system.cpu0.statFuBusy::SimdFloatReduceCmp            0      0.00%     69.86% # attempts to use FU when none available (Count)
system.cpu0.statFuBusy::SimdAes                     0      0.00%     69.86% # attempts to use FU when none available (Count)
system.cpu0.statFuBusy::SimdAesMix                  0      0.00%     69.86% # attempts to use FU when none available (Count)
system.cpu0.statFuBusy::SimdSha1Hash                0      0.00%     69.86% # attempts to use FU when none available (Count)
system.cpu0.statFuBusy::SimdSha1Hash2               0      0.00%     69.86% # attempts to use FU when none available (Count)
system.cpu0.statFuBusy::SimdSha256Hash              0      0.00%     69.86% # attempts to use FU when none available (Count)
system.cpu0.statFuBusy::SimdSha256Hash2             0      0.00%     69.86% # attempts to use FU when none available (Count)
system.cpu0.statFuBusy::SimdShaSigma2               0      0.00%     69.86% # attempts to use FU when none available (Count)
system.cpu0.statFuBusy::SimdShaSigma3               0      0.00%     69.86% # attempts to use FU when none available (Count)
system.cpu0.statFuBusy::SimdPredAlu                 0      0.00%     69.86% # attempts to use FU when none available (Count)
system.cpu0.statFuBusy::Matrix                      0      0.00%     69.86% # attempts to use FU when none available (Count)
system.cpu0.statFuBusy::MatrixMov                   0      0.00%     69.86% # attempts to use FU when none available (Count)
system.cpu0.statFuBusy::MatrixOP                    0      0.00%     69.86% # attempts to use FU when none available (Count)
system.cpu0.statFuBusy::MemRead                   773     16.61%     86.47% # attempts to use FU when none available (Count)
system.cpu0.statFuBusy::MemWrite                  546     11.73%     98.20% # attempts to use FU when none available (Count)
system.cpu0.statFuBusy::FloatMemRead               34      0.73%     98.93% # attempts to use FU when none available (Count)
system.cpu0.statFuBusy::FloatMemWrite              50      1.07%    100.00% # attempts to use FU when none available (Count)
system.cpu0.statFuBusy::IprAccess                   0      0.00%    100.00% # attempts to use FU when none available (Count)
system.cpu0.statFuBusy::InstPrefetch                0      0.00%    100.00% # attempts to use FU when none available (Count)
system.cpu0.statFuBusy::VectorUnitStrideLoad            0      0.00%    100.00% # attempts to use FU when none available (Count)
system.cpu0.statFuBusy::VectorUnitStrideStore            0      0.00%    100.00% # attempts to use FU when none available (Count)
system.cpu0.statFuBusy::VectorUnitStrideMaskLoad            0      0.00%    100.00% # attempts to use FU when none available (Count)
system.cpu0.statFuBusy::VectorUnitStrideMaskStore            0      0.00%    100.00% # attempts to use FU when none available (Count)
system.cpu0.statFuBusy::VectorStridedLoad            0      0.00%    100.00% # attempts to use FU when none available (Count)
system.cpu0.statFuBusy::VectorStridedStore            0      0.00%    100.00% # attempts to use FU when none available (Count)
system.cpu0.statFuBusy::VectorIndexedLoad            0      0.00%    100.00% # attempts to use FU when none available (Count)
system.cpu0.statFuBusy::VectorIndexedStore            0      0.00%    100.00% # attempts to use FU when none available (Count)
system.cpu0.statFuBusy::VectorUnitStrideFaultOnlyFirstLoad            0      0.00%    100.00% # attempts to use FU when none available (Count)
system.cpu0.statFuBusy::VectorWholeRegisterLoad            0      0.00%    100.00% # attempts to use FU when none available (Count)
system.cpu0.statFuBusy::VectorWholeRegisterStore            0      0.00%    100.00% # attempts to use FU when none available (Count)
system.cpu0.statFuBusy::VectorIntegerArith            0      0.00%    100.00% # attempts to use FU when none available (Count)
system.cpu0.statFuBusy::VectorFloatArith            0      0.00%    100.00% # attempts to use FU when none available (Count)
system.cpu0.statFuBusy::VectorFloatConvert            0      0.00%    100.00% # attempts to use FU when none available (Count)
system.cpu0.statFuBusy::VectorIntegerReduce            0      0.00%    100.00% # attempts to use FU when none available (Count)
system.cpu0.statFuBusy::VectorFloatReduce            0      0.00%    100.00% # attempts to use FU when none available (Count)
system.cpu0.statFuBusy::VectorMisc                  0      0.00%    100.00% # attempts to use FU when none available (Count)
system.cpu0.statFuBusy::VectorIntegerExtension            0      0.00%    100.00% # attempts to use FU when none available (Count)
system.cpu0.statFuBusy::VectorConfig                0      0.00%    100.00% # attempts to use FU when none available (Count)
system.cpu0.statIssuedInstType_0::No_OpClass         2772      1.02%      1.02% # Number of instructions issued per FU type, per thread (Count)
system.cpu0.statIssuedInstType_0::IntAlu       200716     74.06%     75.09% # Number of instructions issued per FU type, per thread (Count)
system.cpu0.statIssuedInstType_0::IntMult           20      0.01%     75.09% # Number of instructions issued per FU type, per thread (Count)
system.cpu0.statIssuedInstType_0::IntDiv         1774      0.65%     75.75% # Number of instructions issued per FU type, per thread (Count)
system.cpu0.statIssuedInstType_0::FloatAdd          738      0.27%     76.02% # Number of instructions issued per FU type, per thread (Count)
system.cpu0.statIssuedInstType_0::FloatCmp            0      0.00%     76.02% # Number of instructions issued per FU type, per thread (Count)
system.cpu0.statIssuedInstType_0::FloatCvt           32      0.01%     76.03% # Number of instructions issued per FU type, per thread (Count)
system.cpu0.statIssuedInstType_0::FloatMult            0      0.00%     76.03% # Number of instructions issued per FU type, per thread (Count)
system.cpu0.statIssuedInstType_0::FloatMultAcc            0      0.00%     76.03% # Number of instructions issued per FU type, per thread (Count)
system.cpu0.statIssuedInstType_0::FloatDiv            0      0.00%     76.03% # Number of instructions issued per FU type, per thread (Count)
system.cpu0.statIssuedInstType_0::FloatMisc            0      0.00%     76.03% # Number of instructions issued per FU type, per thread (Count)
system.cpu0.statIssuedInstType_0::FloatSqrt            0      0.00%     76.03% # Number of instructions issued per FU type, per thread (Count)
system.cpu0.statIssuedInstType_0::SimdAdd          716      0.26%     76.30% # Number of instructions issued per FU type, per thread (Count)
system.cpu0.statIssuedInstType_0::SimdAddAcc            0      0.00%     76.30% # Number of instructions issued per FU type, per thread (Count)
system.cpu0.statIssuedInstType_0::SimdAlu         1963      0.72%     77.02% # Number of instructions issued per FU type, per thread (Count)
system.cpu0.statIssuedInstType_0::SimdCmp            0      0.00%     77.02% # Number of instructions issued per FU type, per thread (Count)
system.cpu0.statIssuedInstType_0::SimdCvt         1794      0.66%     77.68% # Number of instructions issued per FU type, per thread (Count)
system.cpu0.statIssuedInstType_0::SimdMisc         1320      0.49%     78.17% # Number of instructions issued per FU type, per thread (Count)
system.cpu0.statIssuedInstType_0::SimdMult            0      0.00%     78.17% # Number of instructions issued per FU type, per thread (Count)
system.cpu0.statIssuedInstType_0::SimdMultAcc            0      0.00%     78.17% # Number of instructions issued per FU type, per thread (Count)
system.cpu0.statIssuedInstType_0::SimdMatMultAcc            0      0.00%     78.17% # Number of instructions issued per FU type, per thread (Count)
system.cpu0.statIssuedInstType_0::SimdShift          820      0.30%     78.47% # Number of instructions issued per FU type, per thread (Count)
system.cpu0.statIssuedInstType_0::SimdShiftAcc            0      0.00%     78.47% # Number of instructions issued per FU type, per thread (Count)
system.cpu0.statIssuedInstType_0::SimdDiv            0      0.00%     78.47% # Number of instructions issued per FU type, per thread (Count)
system.cpu0.statIssuedInstType_0::SimdSqrt            0      0.00%     78.47% # Number of instructions issued per FU type, per thread (Count)
system.cpu0.statIssuedInstType_0::SimdFloatAdd            0      0.00%     78.47% # Number of instructions issued per FU type, per thread (Count)
system.cpu0.statIssuedInstType_0::SimdFloatAlu            0      0.00%     78.47% # Number of instructions issued per FU type, per thread (Count)
system.cpu0.statIssuedInstType_0::SimdFloatCmp            0      0.00%     78.47% # Number of instructions issued per FU type, per thread (Count)
system.cpu0.statIssuedInstType_0::SimdFloatCvt            0      0.00%     78.47% # Number of instructions issued per FU type, per thread (Count)
system.cpu0.statIssuedInstType_0::SimdFloatDiv            0      0.00%     78.47% # Number of instructions issued per FU type, per thread (Count)
system.cpu0.statIssuedInstType_0::SimdFloatMisc            0      0.00%     78.47% # Number of instructions issued per FU type, per thread (Count)
system.cpu0.statIssuedInstType_0::SimdFloatMult            0      0.00%     78.47% # Number of instructions issued per FU type, per thread (Count)
system.cpu0.statIssuedInstType_0::SimdFloatMultAcc            0      0.00%     78.47% # Number of instructions issued per FU type, per thread (Count)
system.cpu0.statIssuedInstType_0::SimdFloatMatMultAcc            0      0.00%     78.47% # Number of instructions issued per FU type, per thread (Count)
system.cpu0.statIssuedInstType_0::SimdFloatSqrt            0      0.00%     78.47% # Number of instructions issued per FU type, per thread (Count)
system.cpu0.statIssuedInstType_0::SimdReduceAdd            0      0.00%     78.47% # Number of instructions issued per FU type, per thread (Count)
system.cpu0.statIssuedInstType_0::SimdReduceAlu            0      0.00%     78.47% # Number of instructions issued per FU type, per thread (Count)
system.cpu0.statIssuedInstType_0::SimdReduceCmp            0      0.00%     78.47% # Number of instructions issued per FU type, per thread (Count)
system.cpu0.statIssuedInstType_0::SimdFloatReduceAdd            0      0.00%     78.47% # Number of instructions issued per FU type, per thread (Count)
system.cpu0.statIssuedInstType_0::SimdFloatReduceCmp            0      0.00%     78.47% # Number of instructions issued per FU type, per thread (Count)
system.cpu0.statIssuedInstType_0::SimdAes            0      0.00%     78.47% # Number of instructions issued per FU type, per thread (Count)
system.cpu0.statIssuedInstType_0::SimdAesMix            0      0.00%     78.47% # Number of instructions issued per FU type, per thread (Count)
system.cpu0.statIssuedInstType_0::SimdSha1Hash            0      0.00%     78.47% # Number of instructions issued per FU type, per thread (Count)
system.cpu0.statIssuedInstType_0::SimdSha1Hash2            0      0.00%     78.47% # Number of instructions issued per FU type, per thread (Count)
system.cpu0.statIssuedInstType_0::SimdSha256Hash            0      0.00%     78.47% # Number of instructions issued per FU type, per thread (Count)
system.cpu0.statIssuedInstType_0::SimdSha256Hash2            0      0.00%     78.47% # Number of instructions issued per FU type, per thread (Count)
system.cpu0.statIssuedInstType_0::SimdShaSigma2            0      0.00%     78.47% # Number of instructions issued per FU type, per thread (Count)
system.cpu0.statIssuedInstType_0::SimdShaSigma3            0      0.00%     78.47% # Number of instructions issued per FU type, per thread (Count)
system.cpu0.statIssuedInstType_0::SimdPredAlu            0      0.00%     78.47% # Number of instructions issued per FU type, per thread (Count)
system.cpu0.statIssuedInstType_0::Matrix            0      0.00%     78.47% # Number of instructions issued per FU type, per thread (Count)
system.cpu0.statIssuedInstType_0::MatrixMov            0      0.00%     78.47% # Number of instructions issued per FU type, per thread (Count)
system.cpu0.statIssuedInstType_0::MatrixOP            0      0.00%     78.47% # Number of instructions issued per FU type, per thread (Count)
system.cpu0.statIssuedInstType_0::MemRead        38001     14.02%     92.49% # Number of instructions issued per FU type, per thread (Count)
system.cpu0.statIssuedInstType_0::MemWrite        16298      6.01%     98.51% # Number of instructions issued per FU type, per thread (Count)
system.cpu0.statIssuedInstType_0::FloatMemRead         2822      1.04%     99.55% # Number of instructions issued per FU type, per thread (Count)
system.cpu0.statIssuedInstType_0::FloatMemWrite         1220      0.45%    100.00% # Number of instructions issued per FU type, per thread (Count)
system.cpu0.statIssuedInstType_0::IprAccess            0      0.00%    100.00% # Number of instructions issued per FU type, per thread (Count)
system.cpu0.statIssuedInstType_0::InstPrefetch            0      0.00%    100.00% # Number of instructions issued per FU type, per thread (Count)
system.cpu0.statIssuedInstType_0::VectorUnitStrideLoad            0      0.00%    100.00% # Number of instructions issued per FU type, per thread (Count)
system.cpu0.statIssuedInstType_0::VectorUnitStrideStore            0      0.00%    100.00% # Number of instructions issued per FU type, per thread (Count)
system.cpu0.statIssuedInstType_0::VectorUnitStrideMaskLoad            0      0.00%    100.00% # Number of instructions issued per FU type, per thread (Count)
system.cpu0.statIssuedInstType_0::VectorUnitStrideMaskStore            0      0.00%    100.00% # Number of instructions issued per FU type, per thread (Count)
system.cpu0.statIssuedInstType_0::VectorStridedLoad            0      0.00%    100.00% # Number of instructions issued per FU type, per thread (Count)
system.cpu0.statIssuedInstType_0::VectorStridedStore            0      0.00%    100.00% # Number of instructions issued per FU type, per thread (Count)
system.cpu0.statIssuedInstType_0::VectorIndexedLoad            0      0.00%    100.00% # Number of instructions issued per FU type, per thread (Count)
system.cpu0.statIssuedInstType_0::VectorIndexedStore            0      0.00%    100.00% # Number of instructions issued per FU type, per thread (Count)
system.cpu0.statIssuedInstType_0::VectorUnitStrideFaultOnlyFirstLoad            0      0.00%    100.00% # Number of instructions issued per FU type, per thread (Count)
system.cpu0.statIssuedInstType_0::VectorWholeRegisterLoad            0      0.00%    100.00% # Number of instructions issued per FU type, per thread (Count)
system.cpu0.statIssuedInstType_0::VectorWholeRegisterStore            0      0.00%    100.00% # Number of instructions issued per FU type, per thread (Count)
system.cpu0.statIssuedInstType_0::VectorIntegerArith            0      0.00%    100.00% # Number of instructions issued per FU type, per thread (Count)
system.cpu0.statIssuedInstType_0::VectorFloatArith            0      0.00%    100.00% # Number of instructions issued per FU type, per thread (Count)
system.cpu0.statIssuedInstType_0::VectorFloatConvert            0      0.00%    100.00% # Number of instructions issued per FU type, per thread (Count)
system.cpu0.statIssuedInstType_0::VectorIntegerReduce            0      0.00%    100.00% # Number of instructions issued per FU type, per thread (Count)
system.cpu0.statIssuedInstType_0::VectorFloatReduce            0      0.00%    100.00% # Number of instructions issued per FU type, per thread (Count)
system.cpu0.statIssuedInstType_0::VectorMisc            0      0.00%    100.00% # Number of instructions issued per FU type, per thread (Count)
system.cpu0.statIssuedInstType_0::VectorIntegerExtension            0      0.00%    100.00% # Number of instructions issued per FU type, per thread (Count)
system.cpu0.statIssuedInstType_0::VectorConfig            0      0.00%    100.00% # Number of instructions issued per FU type, per thread (Count)
system.cpu0.statIssuedInstType_0::total        271006                       # Number of instructions issued per FU type, per thread (Count)
system.cpu0.issueRate                        0.616192                       # Inst issue rate ((Count/Cycle))
system.cpu0.fuBusy                               4655                       # FU busy when requested (Count)
system.cpu0.fuBusyRate                       0.017177                       # FU busy rate (busy events/executed inst) ((Count/Count))
system.cpu0.intInstQueueReads                  841379                       # Number of integer instruction queue reads (Count)
system.cpu0.intInstQueueWrites                 388546                       # Number of integer instruction queue writes (Count)
system.cpu0.intInstQueueWakeupAccesses         251423                       # Number of integer instruction queue wakeup accesses (Count)
system.cpu0.fpInstQueueReads                    23861                       # Number of floating instruction queue reads (Count)
system.cpu0.fpInstQueueWrites                   23207                       # Number of floating instruction queue writes (Count)
system.cpu0.fpInstQueueWakeupAccesses           10904                       # Number of floating instruction queue wakeup accesses (Count)
system.cpu0.vecInstQueueReads                       0                       # Number of vector instruction queue reads (Count)
system.cpu0.vecInstQueueWrites                      0                       # Number of vector instruction queue writes (Count)
system.cpu0.vecInstQueueWakeupAccesses              0                       # Number of vector instruction queue wakeup accesses (Count)
system.cpu0.intAluAccesses                     260906                       # Number of integer alu accesses (Count)
system.cpu0.fpAluAccesses                       11983                       # Number of floating point alu accesses (Count)
system.cpu0.vecAluAccesses                          0                       # Number of vector alu accesses (Count)
system.cpu0.numSquashedInsts                     4076                       # Number of squashed instructions skipped in execute (Count)
system.cpu0.numSwp                                  0                       # Number of swp insts executed (Count)
system.cpu0.timesIdled                            915                       # Number of times that the entire CPU went into an idle state and unscheduled itself (Count)
system.cpu0.idleCycles                         121748                       # Total number of cycles that the CPU has spent unscheduled due to idling (Cycle)
system.cpu0.MemDepUnit__0.insertedLoads         42411                       # Number of loads inserted to the mem dependence unit. (Count)
system.cpu0.MemDepUnit__0.insertedStores        19326                       # Number of stores inserted to the mem dependence unit. (Count)
system.cpu0.MemDepUnit__0.conflictingLoads         1058                       # Number of conflicting loads. (Count)
system.cpu0.MemDepUnit__0.conflictingStores          396                       # Number of conflicting stores. (Count)
system.cpu0.MemDepUnit__1.insertedLoads             0                       # Number of loads inserted to the mem dependence unit. (Count)
system.cpu0.MemDepUnit__1.insertedStores            0                       # Number of stores inserted to the mem dependence unit. (Count)
system.cpu0.MemDepUnit__1.conflictingLoads            0                       # Number of conflicting loads. (Count)
system.cpu0.MemDepUnit__1.conflictingStores            0                       # Number of conflicting stores. (Count)
system.cpu0.MemDepUnit__2.insertedLoads             0                       # Number of loads inserted to the mem dependence unit. (Count)
system.cpu0.MemDepUnit__2.insertedStores            0                       # Number of stores inserted to the mem dependence unit. (Count)
system.cpu0.MemDepUnit__2.conflictingLoads            0                       # Number of conflicting loads. (Count)
system.cpu0.MemDepUnit__2.conflictingStores            0                       # Number of conflicting stores. (Count)
system.cpu0.MemDepUnit__3.insertedLoads             0                       # Number of loads inserted to the mem dependence unit. (Count)
system.cpu0.MemDepUnit__3.insertedStores            0                       # Number of stores inserted to the mem dependence unit. (Count)
system.cpu0.MemDepUnit__3.conflictingLoads            0                       # Number of conflicting loads. (Count)
system.cpu0.MemDepUnit__3.conflictingStores            0                       # Number of conflicting stores. (Count)
system.cpu0.branchPred.lookups_0::NoBranch          454      1.25%      1.25% # Number of BP lookups (Count)
system.cpu0.branchPred.lookups_0::Return         1505      4.15%      5.40% # Number of BP lookups (Count)
system.cpu0.branchPred.lookups_0::CallDirect         1669      4.60%     10.01% # Number of BP lookups (Count)
system.cpu0.branchPred.lookups_0::CallIndirect          308      0.85%     10.86% # Number of BP lookups (Count)
system.cpu0.branchPred.lookups_0::DirectCond        30145     83.17%     94.03% # Number of BP lookups (Count)
system.cpu0.branchPred.lookups_0::DirectUncond         1626      4.49%     98.51% # Number of BP lookups (Count)
system.cpu0.branchPred.lookups_0::IndirectCond            0      0.00%     98.51% # Number of BP lookups (Count)
system.cpu0.branchPred.lookups_0::IndirectUncond          539      1.49%    100.00% # Number of BP lookups (Count)
system.cpu0.branchPred.lookups_0::total         36246                       # Number of BP lookups (Count)
system.cpu0.branchPred.squashes_0::NoBranch          402      2.57%      2.57% # Number of branches that got squashed (completely removed) as an earlier branch was mispredicted. (Count)
system.cpu0.branchPred.squashes_0::Return          652      4.16%      6.73% # Number of branches that got squashed (completely removed) as an earlier branch was mispredicted. (Count)
system.cpu0.branchPred.squashes_0::CallDirect          900      5.75%     12.48% # Number of branches that got squashed (completely removed) as an earlier branch was mispredicted. (Count)
system.cpu0.branchPred.squashes_0::CallIndirect          219      1.40%     13.88% # Number of branches that got squashed (completely removed) as an earlier branch was mispredicted. (Count)
system.cpu0.branchPred.squashes_0::DirectCond        12383     79.08%     92.96% # Number of branches that got squashed (completely removed) as an earlier branch was mispredicted. (Count)
system.cpu0.branchPred.squashes_0::DirectUncond          817      5.22%     98.17% # Number of branches that got squashed (completely removed) as an earlier branch was mispredicted. (Count)
system.cpu0.branchPred.squashes_0::IndirectCond            0      0.00%     98.17% # Number of branches that got squashed (completely removed) as an earlier branch was mispredicted. (Count)
system.cpu0.branchPred.squashes_0::IndirectUncond          286      1.83%    100.00% # Number of branches that got squashed (completely removed) as an earlier branch was mispredicted. (Count)
system.cpu0.branchPred.squashes_0::total        15659                       # Number of branches that got squashed (completely removed) as an earlier branch was mispredicted. (Count)
system.cpu0.branchPred.corrected_0::NoBranch          110      4.07%      4.07% # Number of branches that got corrected but not yet commited. Branches get corrected by decode or after execute. Also a branch misprediction can be detected out-of-order. Therefore, a corrected branch might not end up beeing committed in case an even earlier branch was mispredicted (Count)
system.cpu0.branchPred.corrected_0::Return            3      0.11%      4.18% # Number of branches that got corrected but not yet commited. Branches get corrected by decode or after execute. Also a branch misprediction can be detected out-of-order. Therefore, a corrected branch might not end up beeing committed in case an even earlier branch was mispredicted (Count)
system.cpu0.branchPred.corrected_0::CallDirect          261      9.66%     13.85% # Number of branches that got corrected but not yet commited. Branches get corrected by decode or after execute. Also a branch misprediction can be detected out-of-order. Therefore, a corrected branch might not end up beeing committed in case an even earlier branch was mispredicted (Count)
system.cpu0.branchPred.corrected_0::CallIndirect           95      3.52%     17.36% # Number of branches that got corrected but not yet commited. Branches get corrected by decode or after execute. Also a branch misprediction can be detected out-of-order. Therefore, a corrected branch might not end up beeing committed in case an even earlier branch was mispredicted (Count)
system.cpu0.branchPred.corrected_0::DirectCond         1786     66.12%     83.49% # Number of branches that got corrected but not yet commited. Branches get corrected by decode or after execute. Also a branch misprediction can be detected out-of-order. Therefore, a corrected branch might not end up beeing committed in case an even earlier branch was mispredicted (Count)
system.cpu0.branchPred.corrected_0::DirectUncond          258      9.55%     93.04% # Number of branches that got corrected but not yet commited. Branches get corrected by decode or after execute. Also a branch misprediction can be detected out-of-order. Therefore, a corrected branch might not end up beeing committed in case an even earlier branch was mispredicted (Count)
system.cpu0.branchPred.corrected_0::IndirectCond            0      0.00%     93.04% # Number of branches that got corrected but not yet commited. Branches get corrected by decode or after execute. Also a branch misprediction can be detected out-of-order. Therefore, a corrected branch might not end up beeing committed in case an even earlier branch was mispredicted (Count)
system.cpu0.branchPred.corrected_0::IndirectUncond          188      6.96%    100.00% # Number of branches that got corrected but not yet commited. Branches get corrected by decode or after execute. Also a branch misprediction can be detected out-of-order. Therefore, a corrected branch might not end up beeing committed in case an even earlier branch was mispredicted (Count)
system.cpu0.branchPred.corrected_0::total         2701                       # Number of branches that got corrected but not yet commited. Branches get corrected by decode or after execute. Also a branch misprediction can be detected out-of-order. Therefore, a corrected branch might not end up beeing committed in case an even earlier branch was mispredicted (Count)
system.cpu0.branchPred.earlyResteers_0::NoBranch            0                       # Number of branches that got redirected after decode. (Count)
system.cpu0.branchPred.earlyResteers_0::Return            0                       # Number of branches that got redirected after decode. (Count)
system.cpu0.branchPred.earlyResteers_0::CallDirect            0                       # Number of branches that got redirected after decode. (Count)
system.cpu0.branchPred.earlyResteers_0::CallIndirect            0                       # Number of branches that got redirected after decode. (Count)
system.cpu0.branchPred.earlyResteers_0::DirectCond            0                       # Number of branches that got redirected after decode. (Count)
system.cpu0.branchPred.earlyResteers_0::DirectUncond            0                       # Number of branches that got redirected after decode. (Count)
system.cpu0.branchPred.earlyResteers_0::IndirectCond            0                       # Number of branches that got redirected after decode. (Count)
system.cpu0.branchPred.earlyResteers_0::IndirectUncond            0                       # Number of branches that got redirected after decode. (Count)
system.cpu0.branchPred.earlyResteers_0::total            0                       # Number of branches that got redirected after decode. (Count)
system.cpu0.branchPred.committed_0::NoBranch           52      0.25%      0.25% # Number of branches finally committed  (Count)
system.cpu0.branchPred.committed_0::Return          853      4.14%      4.40% # Number of branches finally committed  (Count)
system.cpu0.branchPred.committed_0::CallDirect          769      3.74%      8.13% # Number of branches finally committed  (Count)
system.cpu0.branchPred.committed_0::CallIndirect           89      0.43%      8.56% # Number of branches finally committed  (Count)
system.cpu0.branchPred.committed_0::DirectCond        17762     86.28%     94.84% # Number of branches finally committed  (Count)
system.cpu0.branchPred.committed_0::DirectUncond          809      3.93%     98.77% # Number of branches finally committed  (Count)
system.cpu0.branchPred.committed_0::IndirectCond            0      0.00%     98.77% # Number of branches finally committed  (Count)
system.cpu0.branchPred.committed_0::IndirectUncond          253      1.23%    100.00% # Number of branches finally committed  (Count)
system.cpu0.branchPred.committed_0::total        20587                       # Number of branches finally committed  (Count)
system.cpu0.branchPred.mispredicted_0::NoBranch           52      2.38%      2.38% # Number of committed branches that were mispredicted. (Count)
system.cpu0.branchPred.mispredicted_0::Return            0      0.00%      2.38% # Number of committed branches that were mispredicted. (Count)
system.cpu0.branchPred.mispredicted_0::CallDirect          138      6.31%      8.68% # Number of committed branches that were mispredicted. (Count)
system.cpu0.branchPred.mispredicted_0::CallIndirect           88      4.02%     12.71% # Number of committed branches that were mispredicted. (Count)
system.cpu0.branchPred.mispredicted_0::DirectCond         1599     73.08%     85.79% # Number of committed branches that were mispredicted. (Count)
system.cpu0.branchPred.mispredicted_0::DirectUncond          137      6.26%     92.05% # Number of committed branches that were mispredicted. (Count)
system.cpu0.branchPred.mispredicted_0::IndirectCond            0      0.00%     92.05% # Number of committed branches that were mispredicted. (Count)
system.cpu0.branchPred.mispredicted_0::IndirectUncond          174      7.95%    100.00% # Number of committed branches that were mispredicted. (Count)
system.cpu0.branchPred.mispredicted_0::total         2188                       # Number of committed branches that were mispredicted. (Count)
system.cpu0.branchPred.targetProvider_0::NoTarget        21425     59.11%     59.11% # The component providing the target for taken branches (Count)
system.cpu0.branchPred.targetProvider_0::BTB        13172     36.34%     95.45% # The component providing the target for taken branches (Count)
system.cpu0.branchPred.targetProvider_0::RAS         1505      4.15%     99.60% # The component providing the target for taken branches (Count)
system.cpu0.branchPred.targetProvider_0::Indirect          144      0.40%    100.00% # The component providing the target for taken branches (Count)
system.cpu0.branchPred.targetProvider_0::total        36246                       # The component providing the target for taken branches (Count)
system.cpu0.branchPred.targetWrong_0::NoBranch         2011     82.52%     82.52% # Number of branches where the target was incorrect or not available at prediction time. (Count)
system.cpu0.branchPred.targetWrong_0::Return          400     16.41%     98.93% # Number of branches where the target was incorrect or not available at prediction time. (Count)
system.cpu0.branchPred.targetWrong_0::CallDirect            3      0.12%     99.06% # Number of branches where the target was incorrect or not available at prediction time. (Count)
system.cpu0.branchPred.targetWrong_0::CallIndirect           23      0.94%    100.00% # Number of branches where the target was incorrect or not available at prediction time. (Count)
system.cpu0.branchPred.targetWrong_0::DirectCond            0      0.00%    100.00% # Number of branches where the target was incorrect or not available at prediction time. (Count)
system.cpu0.branchPred.targetWrong_0::DirectUncond            0      0.00%    100.00% # Number of branches where the target was incorrect or not available at prediction time. (Count)
system.cpu0.branchPred.targetWrong_0::IndirectCond            0      0.00%    100.00% # Number of branches where the target was incorrect or not available at prediction time. (Count)
system.cpu0.branchPred.targetWrong_0::IndirectUncond            0      0.00%    100.00% # Number of branches where the target was incorrect or not available at prediction time. (Count)
system.cpu0.branchPred.targetWrong_0::total         2437                       # Number of branches where the target was incorrect or not available at prediction time. (Count)
system.cpu0.branchPred.condPredicted            30599                       # Number of conditional branches predicted (Count)
system.cpu0.branchPred.condPredictedTaken        11707                       # Number of conditional branches predicted as taken (Count)
system.cpu0.branchPred.condIncorrect             2701                       # Number of conditional branches incorrect (Count)
system.cpu0.branchPred.predTakenBTBMiss           676                       # Number of branches predicted taken but missed in BTB (Count)
system.cpu0.branchPred.NotTakenMispredicted         2270                       # Number branches predicted 'not taken' but turned out to be taken (Count)
system.cpu0.branchPred.TakenMispredicted          431                       # Number branches predicted taken but are actually not taken (Count)
system.cpu0.branchPred.BTBLookups               36246                       # Number of BTB lookups (Count)
system.cpu0.branchPred.BTBUpdates                1874                       # Number of BTB updates (Count)
system.cpu0.branchPred.BTBHits                  18127                       # Number of BTB hits (Count)
system.cpu0.branchPred.BTBHitRatio           0.500110                       # BTB Hit Ratio (Ratio)
system.cpu0.branchPred.BTBMispredicted           1145                       # Number BTB mispredictions. No target found or target wrong (Count)
system.cpu0.branchPred.indirectLookups            847                       # Number of indirect predictor lookups. (Count)
system.cpu0.branchPred.indirectHits               144                       # Number of indirect target hits. (Count)
system.cpu0.branchPred.indirectMisses             703                       # Number of indirect misses. (Count)
system.cpu0.branchPred.indirectMispredicted            0                       # Number of mispredicted indirect branches. (Count)
system.cpu0.branchPred.btb.lookups::NoBranch          454      1.25%      1.25% # Number of BTB lookups (Count)
system.cpu0.branchPred.btb.lookups::Return         1505      4.15%      5.40% # Number of BTB lookups (Count)
system.cpu0.branchPred.btb.lookups::CallDirect         1669      4.60%     10.01% # Number of BTB lookups (Count)
system.cpu0.branchPred.btb.lookups::CallIndirect          308      0.85%     10.86% # Number of BTB lookups (Count)
system.cpu0.branchPred.btb.lookups::DirectCond        30145     83.17%     94.03% # Number of BTB lookups (Count)
system.cpu0.branchPred.btb.lookups::DirectUncond         1626      4.49%     98.51% # Number of BTB lookups (Count)
system.cpu0.branchPred.btb.lookups::IndirectCond            0      0.00%     98.51% # Number of BTB lookups (Count)
system.cpu0.branchPred.btb.lookups::IndirectUncond          539      1.49%    100.00% # Number of BTB lookups (Count)
system.cpu0.branchPred.btb.lookups::total        36246                       # Number of BTB lookups (Count)
system.cpu0.branchPred.btb.misses::NoBranch          167      0.92%      0.92% # Number of BTB misses (Count)
system.cpu0.branchPred.btb.misses::Return         1505      8.31%      9.23% # Number of BTB misses (Count)
system.cpu0.branchPred.btb.misses::CallDirect          390      2.15%     11.38% # Number of BTB misses (Count)
system.cpu0.branchPred.btb.misses::CallIndirect          308      1.70%     13.08% # Number of BTB misses (Count)
system.cpu0.branchPred.btb.misses::DirectCond        14854     81.98%     95.06% # Number of BTB misses (Count)
system.cpu0.branchPred.btb.misses::DirectUncond          356      1.96%     97.03% # Number of BTB misses (Count)
system.cpu0.branchPred.btb.misses::IndirectCond            0      0.00%     97.03% # Number of BTB misses (Count)
system.cpu0.branchPred.btb.misses::IndirectUncond          539      2.97%    100.00% # Number of BTB misses (Count)
system.cpu0.branchPred.btb.misses::total        18119                       # Number of BTB misses (Count)
system.cpu0.branchPred.btb.updates::NoBranch            0      0.00%      0.00% # Number of BTB updates (Count)
system.cpu0.branchPred.btb.updates::Return            0      0.00%      0.00% # Number of BTB updates (Count)
system.cpu0.branchPred.btb.updates::CallDirect          261     13.93%     13.93% # Number of BTB updates (Count)
system.cpu0.branchPred.btb.updates::CallIndirect            0      0.00%     13.93% # Number of BTB updates (Count)
system.cpu0.branchPred.btb.updates::DirectCond         1355     72.31%     86.23% # Number of BTB updates (Count)
system.cpu0.branchPred.btb.updates::DirectUncond          258     13.77%    100.00% # Number of BTB updates (Count)
system.cpu0.branchPred.btb.updates::IndirectCond            0      0.00%    100.00% # Number of BTB updates (Count)
system.cpu0.branchPred.btb.updates::IndirectUncond            0      0.00%    100.00% # Number of BTB updates (Count)
system.cpu0.branchPred.btb.updates::total         1874                       # Number of BTB updates (Count)
system.cpu0.branchPred.btb.mispredict::NoBranch            0      0.00%      0.00% # Number of BTB mispredictions. No target found or target wrong. (Count)
system.cpu0.branchPred.btb.mispredict::Return            0      0.00%      0.00% # Number of BTB mispredictions. No target found or target wrong. (Count)
system.cpu0.branchPred.btb.mispredict::CallDirect          261     13.93%     13.93% # Number of BTB mispredictions. No target found or target wrong. (Count)
system.cpu0.branchPred.btb.mispredict::CallIndirect            0      0.00%     13.93% # Number of BTB mispredictions. No target found or target wrong. (Count)
system.cpu0.branchPred.btb.mispredict::DirectCond         1355     72.31%     86.23% # Number of BTB mispredictions. No target found or target wrong. (Count)
system.cpu0.branchPred.btb.mispredict::DirectUncond          258     13.77%    100.00% # Number of BTB mispredictions. No target found or target wrong. (Count)
system.cpu0.branchPred.btb.mispredict::IndirectCond            0      0.00%    100.00% # Number of BTB mispredictions. No target found or target wrong. (Count)
system.cpu0.branchPred.btb.mispredict::IndirectUncond            0      0.00%    100.00% # Number of BTB mispredictions. No target found or target wrong. (Count)
system.cpu0.branchPred.btb.mispredict::total         1874                       # Number of BTB mispredictions. No target found or target wrong. (Count)
system.cpu0.branchPred.btb.power_state.pwrStateResidencyTicks::UNDEFINED    238349500                       # Cumulative time (in ticks) in various power states (Tick)
system.cpu0.branchPred.indirectBranchPred.lookups          847                       # Number of lookups (Count)
system.cpu0.branchPred.indirectBranchPred.hits          144                       # Number of hits of a tag (Count)
system.cpu0.branchPred.indirectBranchPred.misses          703                       # Number of misses (Count)
system.cpu0.branchPred.indirectBranchPred.targetRecords          283                       # Number of targets that where recorded/installed in the cache (Count)
system.cpu0.branchPred.indirectBranchPred.indirectRecords         1130                       # Number of indirect branches/calls recorded in the indirect hist (Count)
system.cpu0.branchPred.indirectBranchPred.speculativeOverflows            0                       # Number of times more than the allowed capacity for speculative branches/calls where in flight and destroy the path history (Count)
system.cpu0.branchPred.ras.pushes                2629                       # Number of times a PC was pushed onto the RAS (Count)
system.cpu0.branchPred.ras.pops                  2624                       # Number of times a PC was poped from the RAS (Count)
system.cpu0.branchPred.ras.squashes              1771                       # Number of times the stack operation was squashed due to wrong speculation. (Count)
system.cpu0.branchPred.ras.used                   853                       # Number of times the RAS is the provider (Count)
system.cpu0.branchPred.ras.correct                853                       # Number of times the RAS is the provider and the prediction is correct (Count)
system.cpu0.branchPred.ras.incorrect                0                       # Number of times the RAS is the provider and the prediction is wrong (Count)
system.cpu0.commit.commitSquashedInsts         103951                       # The number of squashed insts skipped by commit (Count)
system.cpu0.commit.commitNonSpecStalls             60                       # The number of times commit has been forced to stall to communicate backwards (Count)
system.cpu0.commit.branchMispredicts             2379                       # The number of times a branch was mispredicted (Count)
system.cpu0.commit.numCommittedDist::samples       303152                       # Number of insts commited each cycle (Count)
system.cpu0.commit.numCommittedDist::mean     0.662097                       # Number of insts commited each cycle (Count)
system.cpu0.commit.numCommittedDist::stdev     1.841568                       # Number of insts commited each cycle (Count)
system.cpu0.commit.numCommittedDist::underflows            0      0.00%      0.00% # Number of insts commited each cycle (Count)
system.cpu0.commit.numCommittedDist::0         252715     83.36%     83.36% # Number of insts commited each cycle (Count)
system.cpu0.commit.numCommittedDist::1          11416      3.77%     87.13% # Number of insts commited each cycle (Count)
system.cpu0.commit.numCommittedDist::2           8359      2.76%     89.89% # Number of insts commited each cycle (Count)
system.cpu0.commit.numCommittedDist::3           8975      2.96%     92.85% # Number of insts commited each cycle (Count)
system.cpu0.commit.numCommittedDist::4           3470      1.14%     93.99% # Number of insts commited each cycle (Count)
system.cpu0.commit.numCommittedDist::5           3493      1.15%     95.14% # Number of insts commited each cycle (Count)
system.cpu0.commit.numCommittedDist::6           1192      0.39%     95.54% # Number of insts commited each cycle (Count)
system.cpu0.commit.numCommittedDist::7           1096      0.36%     95.90% # Number of insts commited each cycle (Count)
system.cpu0.commit.numCommittedDist::8          12436      4.10%    100.00% # Number of insts commited each cycle (Count)
system.cpu0.commit.numCommittedDist::overflows            0      0.00%    100.00% # Number of insts commited each cycle (Count)
system.cpu0.commit.numCommittedDist::min_value            0                       # Number of insts commited each cycle (Count)
system.cpu0.commit.numCommittedDist::max_value            8                       # Number of insts commited each cycle (Count)
system.cpu0.commit.numCommittedDist::total       303152                       # Number of insts commited each cycle (Count)
system.cpu0.commit.amos                             0                       # Number of atomic instructions committed (Count)
system.cpu0.commit.membars                         28                       # Number of memory barriers committed (Count)
system.cpu0.commit.functionCalls                  858                       # Number of function calls committed. (Count)
system.cpu0.commit.committedInstType_0::No_OpClass         1287      0.64%      0.64% # Class of committed instruction (Count)
system.cpu0.commit.committedInstType_0::IntAlu       152032     75.74%     76.39% # Class of committed instruction (Count)
system.cpu0.commit.committedInstType_0::IntMult           15      0.01%     76.39% # Class of committed instruction (Count)
system.cpu0.commit.committedInstType_0::IntDiv         1647      0.82%     77.21% # Class of committed instruction (Count)
system.cpu0.commit.committedInstType_0::FloatAdd          355      0.18%     77.39% # Class of committed instruction (Count)
system.cpu0.commit.committedInstType_0::FloatCmp            0      0.00%     77.39% # Class of committed instruction (Count)
system.cpu0.commit.committedInstType_0::FloatCvt           32      0.02%     77.41% # Class of committed instruction (Count)
system.cpu0.commit.committedInstType_0::FloatMult            0      0.00%     77.41% # Class of committed instruction (Count)
system.cpu0.commit.committedInstType_0::FloatMultAcc            0      0.00%     77.41% # Class of committed instruction (Count)
system.cpu0.commit.committedInstType_0::FloatDiv            0      0.00%     77.41% # Class of committed instruction (Count)
system.cpu0.commit.committedInstType_0::FloatMisc            0      0.00%     77.41% # Class of committed instruction (Count)
system.cpu0.commit.committedInstType_0::FloatSqrt            0      0.00%     77.41% # Class of committed instruction (Count)
system.cpu0.commit.committedInstType_0::SimdAdd          474      0.24%     77.64% # Class of committed instruction (Count)
system.cpu0.commit.committedInstType_0::SimdAddAcc            0      0.00%     77.64% # Class of committed instruction (Count)
system.cpu0.commit.committedInstType_0::SimdAlu         1063      0.53%     78.17% # Class of committed instruction (Count)
system.cpu0.commit.committedInstType_0::SimdCmp            0      0.00%     78.17% # Class of committed instruction (Count)
system.cpu0.commit.committedInstType_0::SimdCvt         1066      0.53%     78.70% # Class of committed instruction (Count)
system.cpu0.commit.committedInstType_0::SimdMisc          972      0.48%     79.19% # Class of committed instruction (Count)
system.cpu0.commit.committedInstType_0::SimdMult            0      0.00%     79.19% # Class of committed instruction (Count)
system.cpu0.commit.committedInstType_0::SimdMultAcc            0      0.00%     79.19% # Class of committed instruction (Count)
system.cpu0.commit.committedInstType_0::SimdMatMultAcc            0      0.00%     79.19% # Class of committed instruction (Count)
system.cpu0.commit.committedInstType_0::SimdShift          367      0.18%     79.37% # Class of committed instruction (Count)
system.cpu0.commit.committedInstType_0::SimdShiftAcc            0      0.00%     79.37% # Class of committed instruction (Count)
system.cpu0.commit.committedInstType_0::SimdDiv            0      0.00%     79.37% # Class of committed instruction (Count)
system.cpu0.commit.committedInstType_0::SimdSqrt            0      0.00%     79.37% # Class of committed instruction (Count)
system.cpu0.commit.committedInstType_0::SimdFloatAdd            0      0.00%     79.37% # Class of committed instruction (Count)
system.cpu0.commit.committedInstType_0::SimdFloatAlu            0      0.00%     79.37% # Class of committed instruction (Count)
system.cpu0.commit.committedInstType_0::SimdFloatCmp            0      0.00%     79.37% # Class of committed instruction (Count)
system.cpu0.commit.committedInstType_0::SimdFloatCvt            0      0.00%     79.37% # Class of committed instruction (Count)
system.cpu0.commit.committedInstType_0::SimdFloatDiv            0      0.00%     79.37% # Class of committed instruction (Count)
system.cpu0.commit.committedInstType_0::SimdFloatMisc            0      0.00%     79.37% # Class of committed instruction (Count)
system.cpu0.commit.committedInstType_0::SimdFloatMult            0      0.00%     79.37% # Class of committed instruction (Count)
system.cpu0.commit.committedInstType_0::SimdFloatMultAcc            0      0.00%     79.37% # Class of committed instruction (Count)
system.cpu0.commit.committedInstType_0::SimdFloatMatMultAcc            0      0.00%     79.37% # Class of committed instruction (Count)
system.cpu0.commit.committedInstType_0::SimdFloatSqrt            0      0.00%     79.37% # Class of committed instruction (Count)
system.cpu0.commit.committedInstType_0::SimdReduceAdd            0      0.00%     79.37% # Class of committed instruction (Count)
system.cpu0.commit.committedInstType_0::SimdReduceAlu            0      0.00%     79.37% # Class of committed instruction (Count)
system.cpu0.commit.committedInstType_0::SimdReduceCmp            0      0.00%     79.37% # Class of committed instruction (Count)
system.cpu0.commit.committedInstType_0::SimdFloatReduceAdd            0      0.00%     79.37% # Class of committed instruction (Count)
system.cpu0.commit.committedInstType_0::SimdFloatReduceCmp            0      0.00%     79.37% # Class of committed instruction (Count)
system.cpu0.commit.committedInstType_0::SimdAes            0      0.00%     79.37% # Class of committed instruction (Count)
system.cpu0.commit.committedInstType_0::SimdAesMix            0      0.00%     79.37% # Class of committed instruction (Count)
system.cpu0.commit.committedInstType_0::SimdSha1Hash            0      0.00%     79.37% # Class of committed instruction (Count)
system.cpu0.commit.committedInstType_0::SimdSha1Hash2            0      0.00%     79.37% # Class of committed instruction (Count)
system.cpu0.commit.committedInstType_0::SimdSha256Hash            0      0.00%     79.37% # Class of committed instruction (Count)
system.cpu0.commit.committedInstType_0::SimdSha256Hash2            0      0.00%     79.37% # Class of committed instruction (Count)
system.cpu0.commit.committedInstType_0::SimdShaSigma2            0      0.00%     79.37% # Class of committed instruction (Count)
system.cpu0.commit.committedInstType_0::SimdShaSigma3            0      0.00%     79.37% # Class of committed instruction (Count)
system.cpu0.commit.committedInstType_0::SimdPredAlu            0      0.00%     79.37% # Class of committed instruction (Count)
system.cpu0.commit.committedInstType_0::Matrix            0      0.00%     79.37% # Class of committed instruction (Count)
system.cpu0.commit.committedInstType_0::MatrixMov            0      0.00%     79.37% # Class of committed instruction (Count)
system.cpu0.commit.committedInstType_0::MatrixOP            0      0.00%     79.37% # Class of committed instruction (Count)
system.cpu0.commit.committedInstType_0::MemRead        26879     13.39%     92.76% # Class of committed instruction (Count)
system.cpu0.commit.committedInstType_0::MemWrite        12309      6.13%     98.89% # Class of committed instruction (Count)
system.cpu0.commit.committedInstType_0::FloatMemRead         1272      0.63%     99.53% # Class of committed instruction (Count)
system.cpu0.commit.committedInstType_0::FloatMemWrite          946      0.47%    100.00% # Class of committed instruction (Count)
system.cpu0.commit.committedInstType_0::IprAccess            0      0.00%    100.00% # Class of committed instruction (Count)
system.cpu0.commit.committedInstType_0::InstPrefetch            0      0.00%    100.00% # Class of committed instruction (Count)
system.cpu0.commit.committedInstType_0::VectorUnitStrideLoad            0      0.00%    100.00% # Class of committed instruction (Count)
system.cpu0.commit.committedInstType_0::VectorUnitStrideStore            0      0.00%    100.00% # Class of committed instruction (Count)
system.cpu0.commit.committedInstType_0::VectorUnitStrideMaskLoad            0      0.00%    100.00% # Class of committed instruction (Count)
system.cpu0.commit.committedInstType_0::VectorUnitStrideMaskStore            0      0.00%    100.00% # Class of committed instruction (Count)
system.cpu0.commit.committedInstType_0::VectorStridedLoad            0      0.00%    100.00% # Class of committed instruction (Count)
system.cpu0.commit.committedInstType_0::VectorStridedStore            0      0.00%    100.00% # Class of committed instruction (Count)
system.cpu0.commit.committedInstType_0::VectorIndexedLoad            0      0.00%    100.00% # Class of committed instruction (Count)
system.cpu0.commit.committedInstType_0::VectorIndexedStore            0      0.00%    100.00% # Class of committed instruction (Count)
system.cpu0.commit.committedInstType_0::VectorUnitStrideFaultOnlyFirstLoad            0      0.00%    100.00% # Class of committed instruction (Count)
system.cpu0.commit.committedInstType_0::VectorWholeRegisterLoad            0      0.00%    100.00% # Class of committed instruction (Count)
system.cpu0.commit.committedInstType_0::VectorWholeRegisterStore            0      0.00%    100.00% # Class of committed instruction (Count)
system.cpu0.commit.committedInstType_0::VectorIntegerArith            0      0.00%    100.00% # Class of committed instruction (Count)
system.cpu0.commit.committedInstType_0::VectorFloatArith            0      0.00%    100.00% # Class of committed instruction (Count)
system.cpu0.commit.committedInstType_0::VectorFloatConvert            0      0.00%    100.00% # Class of committed instruction (Count)
system.cpu0.commit.committedInstType_0::VectorIntegerReduce            0      0.00%    100.00% # Class of committed instruction (Count)
system.cpu0.commit.committedInstType_0::VectorFloatReduce            0      0.00%    100.00% # Class of committed instruction (Count)
system.cpu0.commit.committedInstType_0::VectorMisc            0      0.00%    100.00% # Class of committed instruction (Count)
system.cpu0.commit.committedInstType_0::VectorIntegerExtension            0      0.00%    100.00% # Class of committed instruction (Count)
system.cpu0.commit.committedInstType_0::VectorConfig            0      0.00%    100.00% # Class of committed instruction (Count)
system.cpu0.commit.committedInstType_0::total       200716                       # Class of committed instruction (Count)
system.cpu0.commit.commitEligibleSamples        12436                       # number cycles where commit BW limit reached (Cycle)
system.cpu0.commitStats0.numInsts              109350                       # Number of instructions committed (thread level) (Count)
system.cpu0.commitStats0.numOps                200716                       # Number of ops (including micro ops) committed (thread level) (Count)
system.cpu0.commitStats0.numInstsNotNOP        109350                       # Number of instructions committed excluding NOPs or prefetches (Count)
system.cpu0.commitStats0.numOpsNotNOP          200716                       # Number of Ops (including micro ops) Simulated (Count)
system.cpu0.commitStats0.cpi                 4.022021                       # CPI: cycles per instruction (thread level) ((Cycle/Count))
system.cpu0.commitStats0.ipc                 0.248631                       # IPC: instructions per cycle (thread level) ((Count/Cycle))
system.cpu0.commitStats0.numMemRefs             41406                       # Number of memory references committed (Count)
system.cpu0.commitStats0.numFpInsts              6819                       # Number of float instructions (Count)
system.cpu0.commitStats0.numIntInsts           194561                       # Number of integer instructions (Count)
system.cpu0.commitStats0.numLoadInsts           28151                       # Number of load instructions (Count)
system.cpu0.commitStats0.numStoreInsts          13255                       # Number of store instructions (Count)
system.cpu0.commitStats0.numVecInsts                0                       # Number of vector instructions (Count)
system.cpu0.commitStats0.committedInstType::No_OpClass         1287      0.64%      0.64% # Class of committed instruction. (Count)
system.cpu0.commitStats0.committedInstType::IntAlu       152032     75.74%     76.39% # Class of committed instruction. (Count)
system.cpu0.commitStats0.committedInstType::IntMult           15      0.01%     76.39% # Class of committed instruction. (Count)
system.cpu0.commitStats0.committedInstType::IntDiv         1647      0.82%     77.21% # Class of committed instruction. (Count)
system.cpu0.commitStats0.committedInstType::FloatAdd          355      0.18%     77.39% # Class of committed instruction. (Count)
system.cpu0.commitStats0.committedInstType::FloatCmp            0      0.00%     77.39% # Class of committed instruction. (Count)
system.cpu0.commitStats0.committedInstType::FloatCvt           32      0.02%     77.41% # Class of committed instruction. (Count)
system.cpu0.commitStats0.committedInstType::FloatMult            0      0.00%     77.41% # Class of committed instruction. (Count)
system.cpu0.commitStats0.committedInstType::FloatMultAcc            0      0.00%     77.41% # Class of committed instruction. (Count)
system.cpu0.commitStats0.committedInstType::FloatDiv            0      0.00%     77.41% # Class of committed instruction. (Count)
system.cpu0.commitStats0.committedInstType::FloatMisc            0      0.00%     77.41% # Class of committed instruction. (Count)
system.cpu0.commitStats0.committedInstType::FloatSqrt            0      0.00%     77.41% # Class of committed instruction. (Count)
system.cpu0.commitStats0.committedInstType::SimdAdd          474      0.24%     77.64% # Class of committed instruction. (Count)
system.cpu0.commitStats0.committedInstType::SimdAddAcc            0      0.00%     77.64% # Class of committed instruction. (Count)
system.cpu0.commitStats0.committedInstType::SimdAlu         1063      0.53%     78.17% # Class of committed instruction. (Count)
system.cpu0.commitStats0.committedInstType::SimdCmp            0      0.00%     78.17% # Class of committed instruction. (Count)
system.cpu0.commitStats0.committedInstType::SimdCvt         1066      0.53%     78.70% # Class of committed instruction. (Count)
system.cpu0.commitStats0.committedInstType::SimdMisc          972      0.48%     79.19% # Class of committed instruction. (Count)
system.cpu0.commitStats0.committedInstType::SimdMult            0      0.00%     79.19% # Class of committed instruction. (Count)
system.cpu0.commitStats0.committedInstType::SimdMultAcc            0      0.00%     79.19% # Class of committed instruction. (Count)
system.cpu0.commitStats0.committedInstType::SimdMatMultAcc            0      0.00%     79.19% # Class of committed instruction. (Count)
system.cpu0.commitStats0.committedInstType::SimdShift          367      0.18%     79.37% # Class of committed instruction. (Count)
system.cpu0.commitStats0.committedInstType::SimdShiftAcc            0      0.00%     79.37% # Class of committed instruction. (Count)
system.cpu0.commitStats0.committedInstType::SimdDiv            0      0.00%     79.37% # Class of committed instruction. (Count)
system.cpu0.commitStats0.committedInstType::SimdSqrt            0      0.00%     79.37% # Class of committed instruction. (Count)
system.cpu0.commitStats0.committedInstType::SimdFloatAdd            0      0.00%     79.37% # Class of committed instruction. (Count)
system.cpu0.commitStats0.committedInstType::SimdFloatAlu            0      0.00%     79.37% # Class of committed instruction. (Count)
system.cpu0.commitStats0.committedInstType::SimdFloatCmp            0      0.00%     79.37% # Class of committed instruction. (Count)
system.cpu0.commitStats0.committedInstType::SimdFloatCvt            0      0.00%     79.37% # Class of committed instruction. (Count)
system.cpu0.commitStats0.committedInstType::SimdFloatDiv            0      0.00%     79.37% # Class of committed instruction. (Count)
system.cpu0.commitStats0.committedInstType::SimdFloatMisc            0      0.00%     79.37% # Class of committed instruction. (Count)
system.cpu0.commitStats0.committedInstType::SimdFloatMult            0      0.00%     79.37% # Class of committed instruction. (Count)
system.cpu0.commitStats0.committedInstType::SimdFloatMultAcc            0      0.00%     79.37% # Class of committed instruction. (Count)
system.cpu0.commitStats0.committedInstType::SimdFloatMatMultAcc            0      0.00%     79.37% # Class of committed instruction. (Count)
system.cpu0.commitStats0.committedInstType::SimdFloatSqrt            0      0.00%     79.37% # Class of committed instruction. (Count)
system.cpu0.commitStats0.committedInstType::SimdReduceAdd            0      0.00%     79.37% # Class of committed instruction. (Count)
system.cpu0.commitStats0.committedInstType::SimdReduceAlu            0      0.00%     79.37% # Class of committed instruction. (Count)
system.cpu0.commitStats0.committedInstType::SimdReduceCmp            0      0.00%     79.37% # Class of committed instruction. (Count)
system.cpu0.commitStats0.committedInstType::SimdFloatReduceAdd            0      0.00%     79.37% # Class of committed instruction. (Count)
system.cpu0.commitStats0.committedInstType::SimdFloatReduceCmp            0      0.00%     79.37% # Class of committed instruction. (Count)
system.cpu0.commitStats0.committedInstType::SimdAes            0      0.00%     79.37% # Class of committed instruction. (Count)
system.cpu0.commitStats0.committedInstType::SimdAesMix            0      0.00%     79.37% # Class of committed instruction. (Count)
system.cpu0.commitStats0.committedInstType::SimdSha1Hash            0      0.00%     79.37% # Class of committed instruction. (Count)
system.cpu0.commitStats0.committedInstType::SimdSha1Hash2            0      0.00%     79.37% # Class of committed instruction. (Count)
system.cpu0.commitStats0.committedInstType::SimdSha256Hash            0      0.00%     79.37% # Class of committed instruction. (Count)
system.cpu0.commitStats0.committedInstType::SimdSha256Hash2            0      0.00%     79.37% # Class of committed instruction. (Count)
system.cpu0.commitStats0.committedInstType::SimdShaSigma2            0      0.00%     79.37% # Class of committed instruction. (Count)
system.cpu0.commitStats0.committedInstType::SimdShaSigma3            0      0.00%     79.37% # Class of committed instruction. (Count)
system.cpu0.commitStats0.committedInstType::SimdPredAlu            0      0.00%     79.37% # Class of committed instruction. (Count)
system.cpu0.commitStats0.committedInstType::Matrix            0      0.00%     79.37% # Class of committed instruction. (Count)
system.cpu0.commitStats0.committedInstType::MatrixMov            0      0.00%     79.37% # Class of committed instruction. (Count)
system.cpu0.commitStats0.committedInstType::MatrixOP            0      0.00%     79.37% # Class of committed instruction. (Count)
system.cpu0.commitStats0.committedInstType::MemRead        26879     13.39%     92.76% # Class of committed instruction. (Count)
system.cpu0.commitStats0.committedInstType::MemWrite        12309      6.13%     98.89% # Class of committed instruction. (Count)
system.cpu0.commitStats0.committedInstType::FloatMemRead         1272      0.63%     99.53% # Class of committed instruction. (Count)
system.cpu0.commitStats0.committedInstType::FloatMemWrite          946      0.47%    100.00% # Class of committed instruction. (Count)
system.cpu0.commitStats0.committedInstType::IprAccess            0      0.00%    100.00% # Class of committed instruction. (Count)
system.cpu0.commitStats0.committedInstType::InstPrefetch            0      0.00%    100.00% # Class of committed instruction. (Count)
system.cpu0.commitStats0.committedInstType::VectorUnitStrideLoad            0      0.00%    100.00% # Class of committed instruction. (Count)
system.cpu0.commitStats0.committedInstType::VectorUnitStrideStore            0      0.00%    100.00% # Class of committed instruction. (Count)
system.cpu0.commitStats0.committedInstType::VectorUnitStrideMaskLoad            0      0.00%    100.00% # Class of committed instruction. (Count)
system.cpu0.commitStats0.committedInstType::VectorUnitStrideMaskStore            0      0.00%    100.00% # Class of committed instruction. (Count)
system.cpu0.commitStats0.committedInstType::VectorStridedLoad            0      0.00%    100.00% # Class of committed instruction. (Count)
system.cpu0.commitStats0.committedInstType::VectorStridedStore            0      0.00%    100.00% # Class of committed instruction. (Count)
system.cpu0.commitStats0.committedInstType::VectorIndexedLoad            0      0.00%    100.00% # Class of committed instruction. (Count)
system.cpu0.commitStats0.committedInstType::VectorIndexedStore            0      0.00%    100.00% # Class of committed instruction. (Count)
system.cpu0.commitStats0.committedInstType::VectorUnitStrideFaultOnlyFirstLoad            0      0.00%    100.00% # Class of committed instruction. (Count)
system.cpu0.commitStats0.committedInstType::VectorWholeRegisterLoad            0      0.00%    100.00% # Class of committed instruction. (Count)
system.cpu0.commitStats0.committedInstType::VectorWholeRegisterStore            0      0.00%    100.00% # Class of committed instruction. (Count)
system.cpu0.commitStats0.committedInstType::VectorIntegerArith            0      0.00%    100.00% # Class of committed instruction. (Count)
system.cpu0.commitStats0.committedInstType::VectorFloatArith            0      0.00%    100.00% # Class of committed instruction. (Count)
system.cpu0.commitStats0.committedInstType::VectorFloatConvert            0      0.00%    100.00% # Class of committed instruction. (Count)
system.cpu0.commitStats0.committedInstType::VectorIntegerReduce            0      0.00%    100.00% # Class of committed instruction. (Count)
system.cpu0.commitStats0.committedInstType::VectorFloatReduce            0      0.00%    100.00% # Class of committed instruction. (Count)
system.cpu0.commitStats0.committedInstType::VectorMisc            0      0.00%    100.00% # Class of committed instruction. (Count)
system.cpu0.commitStats0.committedInstType::VectorIntegerExtension            0      0.00%    100.00% # Class of committed instruction. (Count)
system.cpu0.commitStats0.committedInstType::VectorConfig            0      0.00%    100.00% # Class of committed instruction. (Count)
system.cpu0.commitStats0.committedInstType::total       200716                       # Class of committed instruction. (Count)
system.cpu0.commitStats0.committedControl::IsControl        20587                       # Class of control type instructions committed (Count)
system.cpu0.commitStats0.committedControl::IsDirectControl        19340                       # Class of control type instructions committed (Count)
system.cpu0.commitStats0.committedControl::IsIndirectControl         1195                       # Class of control type instructions committed (Count)
system.cpu0.commitStats0.committedControl::IsCondControl        17762                       # Class of control type instructions committed (Count)
system.cpu0.commitStats0.committedControl::IsUncondControl         2773                       # Class of control type instructions committed (Count)
system.cpu0.commitStats0.committedControl::IsCall          858                       # Class of control type instructions committed (Count)
system.cpu0.commitStats0.committedControl::IsReturn          853                       # Class of control type instructions committed (Count)
system.cpu0.decode.idleCycles                   76515                       # Number of cycles decode is idle (Cycle)
system.cpu0.decode.blockedCycles               190252                       # Number of cycles decode is blocked (Cycle)
system.cpu0.decode.runCycles                    41178                       # Number of cycles decode is running (Cycle)
system.cpu0.decode.unblockCycles                 7543                       # Number of cycles decode is unblocking (Cycle)
system.cpu0.decode.squashCycles                  2572                       # Number of cycles decode is squashing (Cycle)
system.cpu0.decode.branchResolved               12460                       # Number of times decode resolved a branch (Count)
system.cpu0.decode.branchMispred                  554                       # Number of times decode detected a branch misprediction (Count)
system.cpu0.decode.decodedInsts                329763                       # Number of instructions handled by decode (Count)
system.cpu0.decode.squashedInsts                 2887                       # Number of squashed instructions handled by decode (Count)
system.cpu0.executeStats0.numInsts             266930                       # Number of executed instructions (Count)
system.cpu0.executeStats0.numNop                    0                       # Number of nop insts executed (Count)
system.cpu0.executeStats0.numBranches           24416                       # Number of branches executed (Count)
system.cpu0.executeStats0.numLoadInsts          39824                       # Number of load instructions executed (Count)
system.cpu0.executeStats0.numStoreInsts         17174                       # Number of stores executed (Count)
system.cpu0.executeStats0.instRate           0.606924                       # Inst execution rate ((Count/Cycle))
system.cpu0.executeStats0.numCCRegReads        137567                       # Number of times the CC registers were read (Count)
system.cpu0.executeStats0.numCCRegWrites        94290                       # Number of times the CC registers were written (Count)
system.cpu0.executeStats0.numFpRegReads         16381                       # Number of times the floating registers were read (Count)
[...]
system.ruby.network.data_traffic_distribution.n4.n11            0                       (Unspecified)
system.ruby.network.data_traffic_distribution.n4.n12            0                       (Unspecified)
system.ruby.network.data_traffic_distribution.n4.n13            0                       (Unspecified)
system.ruby.network.data_traffic_distribution.n4.n14            0                       (Unspecified)
system.ruby.network.data_traffic_distribution.n4.n15            0                       (Unspecified)
system.ruby.network.data_traffic_distribution.n4.n2            0                       (Unspecified)
system.ruby.network.data_traffic_distribution.n4.n3            0                       (Unspecified)
system.ruby.network.data_traffic_distribution.n4.n4            0                       (Unspecified)
system.ruby.network.data_traffic_distribution.n4.n5            0                       (Unspecified)
system.ruby.network.data_traffic_distribution.n4.n6            0                       (Unspecified)
system.ruby.network.data_traffic_distribution.n4.n7            0                       (Unspecified)
system.ruby.network.data_traffic_distribution.n4.n8            0                       (Unspecified)
system.ruby.network.data_traffic_distribution.n4.n9            0                       (Unspecified)
system.ruby.network.data_traffic_distribution.n5.n0         3120                       (Unspecified)
system.ruby.network.data_traffic_distribution.n5.n1            0                       (Unspecified)
system.ruby.network.data_traffic_distribution.n5.n10            0                       (Unspecified)
system.ruby.network.data_traffic_distribution.n5.n11            0                       (Unspecified)
system.ruby.network.data_traffic_distribution.n5.n12            0                       (Unspecified)
system.ruby.network.data_traffic_distribution.n5.n13            0                       (Unspecified)
system.ruby.network.data_traffic_distribution.n5.n14            0                       (Unspecified)
system.ruby.network.data_traffic_distribution.n5.n15            0                       (Unspecified)
system.ruby.network.data_traffic_distribution.n5.n2            0                       (Unspecified)
system.ruby.network.data_traffic_distribution.n5.n3            0                       (Unspecified)
system.ruby.network.data_traffic_distribution.n5.n4            0                       (Unspecified)
system.ruby.network.data_traffic_distribution.n5.n5            0                       (Unspecified)
system.ruby.network.data_traffic_distribution.n5.n6            0                       (Unspecified)
system.ruby.network.data_traffic_distribution.n5.n7            0                       (Unspecified)
system.ruby.network.data_traffic_distribution.n5.n8            0                       (Unspecified)
system.ruby.network.data_traffic_distribution.n5.n9            0                       (Unspecified)
system.ruby.network.data_traffic_distribution.n6.n0         3117                       (Unspecified)
system.ruby.network.data_traffic_distribution.n6.n1            0                       (Unspecified)
system.ruby.network.data_traffic_distribution.n6.n10            0                       (Unspecified)
system.ruby.network.data_traffic_distribution.n6.n11            0                       (Unspecified)
system.ruby.network.data_traffic_distribution.n6.n12            0                       (Unspecified)
system.ruby.network.data_traffic_distribution.n6.n13            0                       (Unspecified)
system.ruby.network.data_traffic_distribution.n6.n14            0                       (Unspecified)
system.ruby.network.data_traffic_distribution.n6.n15            0                       (Unspecified)
system.ruby.network.data_traffic_distribution.n6.n2            0                       (Unspecified)
system.ruby.network.data_traffic_distribution.n6.n3            0                       (Unspecified)
system.ruby.network.data_traffic_distribution.n6.n4            0                       (Unspecified)
system.ruby.network.data_traffic_distribution.n6.n5            0                       (Unspecified)
system.ruby.network.data_traffic_distribution.n6.n6            0                       (Unspecified)
system.ruby.network.data_traffic_distribution.n6.n7            0                       (Unspecified)
system.ruby.network.data_traffic_distribution.n6.n8            0                       (Unspecified)
system.ruby.network.data_traffic_distribution.n6.n9            0                       (Unspecified)
system.ruby.network.data_traffic_distribution.n7.n0         3021                       (Unspecified)
system.ruby.network.data_traffic_distribution.n7.n1            0                       (Unspecified)
system.ruby.network.data_traffic_distribution.n7.n10            0                       (Unspecified)
system.ruby.network.data_traffic_distribution.n7.n11            0                       (Unspecified)
system.ruby.network.data_traffic_distribution.n7.n12            0                       (Unspecified)
system.ruby.network.data_traffic_distribution.n7.n13            0                       (Unspecified)
system.ruby.network.data_traffic_distribution.n7.n14            0                       (Unspecified)
system.ruby.network.data_traffic_distribution.n7.n15            0                       (Unspecified)
system.ruby.network.data_traffic_distribution.n7.n2            0                       (Unspecified)
system.ruby.network.data_traffic_distribution.n7.n3            0                       (Unspecified)
system.ruby.network.data_traffic_distribution.n7.n4            0                       (Unspecified)
system.ruby.network.data_traffic_distribution.n7.n5            0                       (Unspecified)
system.ruby.network.data_traffic_distribution.n7.n6            0                       (Unspecified)
system.ruby.network.data_traffic_distribution.n7.n7            0                       (Unspecified)
system.ruby.network.data_traffic_distribution.n7.n8            0                       (Unspecified)
system.ruby.network.data_traffic_distribution.n7.n9            0                       (Unspecified)
system.ruby.network.data_traffic_distribution.n8.n0         3006                       (Unspecified)
system.ruby.network.data_traffic_distribution.n8.n1            0                       (Unspecified)
system.ruby.network.data_traffic_distribution.n8.n10            0                       (Unspecified)
system.ruby.network.data_traffic_distribution.n8.n11            0                       (Unspecified)
system.ruby.network.data_traffic_distribution.n8.n12            0                       (Unspecified)
system.ruby.network.data_traffic_distribution.n8.n13            0                       (Unspecified)
system.ruby.network.data_traffic_distribution.n8.n14            0                       (Unspecified)
system.ruby.network.data_traffic_distribution.n8.n15            0                       (Unspecified)
system.ruby.network.data_traffic_distribution.n8.n2            0                       (Unspecified)
system.ruby.network.data_traffic_distribution.n8.n3            0                       (Unspecified)
system.ruby.network.data_traffic_distribution.n8.n4            0                       (Unspecified)
system.ruby.network.data_traffic_distribution.n8.n5            0                       (Unspecified)
system.ruby.network.data_traffic_distribution.n8.n6            0                       (Unspecified)
system.ruby.network.data_traffic_distribution.n8.n7            0                       (Unspecified)
system.ruby.network.data_traffic_distribution.n8.n8            0                       (Unspecified)
system.ruby.network.data_traffic_distribution.n8.n9            0                       (Unspecified)
system.ruby.network.data_traffic_distribution.n9.n0         3214                       (Unspecified)
system.ruby.network.data_traffic_distribution.n9.n1            0                       (Unspecified)
system.ruby.network.data_traffic_distribution.n9.n10            0                       (Unspecified)
system.ruby.network.data_traffic_distribution.n9.n11            0                       (Unspecified)
system.ruby.network.data_traffic_distribution.n9.n12            0                       (Unspecified)
system.ruby.network.data_traffic_distribution.n9.n13            0                       (Unspecified)
system.ruby.network.data_traffic_distribution.n9.n14            0                       (Unspecified)
system.ruby.network.data_traffic_distribution.n9.n15            0                       (Unspecified)
system.ruby.network.data_traffic_distribution.n9.n2            0                       (Unspecified)
system.ruby.network.data_traffic_distribution.n9.n3            0                       (Unspecified)
system.ruby.network.data_traffic_distribution.n9.n4            0                       (Unspecified)
system.ruby.network.data_traffic_distribution.n9.n5            0                       (Unspecified)
system.ruby.network.data_traffic_distribution.n9.n6            0                       (Unspecified)
system.ruby.network.data_traffic_distribution.n9.n7            0                       (Unspecified)
system.ruby.network.data_traffic_distribution.n9.n8            0                       (Unspecified)
system.ruby.network.data_traffic_distribution.n9.n9            0                       (Unspecified)
system.ruby.network.ext_in_link_utilization       754692                       (Unspecified)
system.ruby.network.ext_out_link_utilization       754691                       (Unspecified)
system.ruby.network.flit_network_latency |  1851100500                       | 12023105500                       |   208200000                       |           0                       |           0                       (Unspecified)
system.ruby.network.flit_queueing_latency |   218428500                       |  2055104500                       |    18163500                       |           0                       |           0                       (Unspecified)
system.ruby.network.flits_injected       |      165882     21.98%     21.98% |      552483     73.21%     95.19% |       36327      4.81%    100.00% |           0      0.00%    100.00% |           0      0.00%    100.00% (Unspecified)
system.ruby.network.flits_injected::total       754692                       (Unspecified)
system.ruby.network.flits_received       |      165881     21.98%     21.98% |      552483     73.21%     95.19% |       36327      4.81%    100.00% |           0      0.00%    100.00% |           0      0.00%    100.00% (Unspecified)
system.ruby.network.flits_received::total       754691                       (Unspecified)
system.ruby.network.int_link_utilization      2255900                       (Unspecified)
system.ruby.network.packet_network_latency |  1188515500                       |  2910492500                       |   208200000                       |           0                       |           0                       (Unspecified)
system.ruby.network.packet_queueing_latency |   168874500                       |   478014500                       |    18163500                       |           0                       |           0                       (Unspecified)
system.ruby.network.packets_injected     |      132102     43.65%     43.65% |      134235     44.35%     88.00% |       36327     12.00%    100.00% |           0      0.00%    100.00% |           0      0.00%    100.00% (Unspecified)
system.ruby.network.packets_injected::total       302664                       (Unspecified)
system.ruby.network.packets_received     |      132101     43.65%     43.65% |      134235     44.35%     88.00% |       36327     12.00%    100.00% |           0      0.00%    100.00% |           0      0.00%    100.00% (Unspecified)
system.ruby.network.packets_received::total       302663                       (Unspecified)
system.ruby.network.routers00.buffer_reads       754691                       (Unspecified)
system.ruby.network.routers00.buffer_writes       754691                       (Unspecified)
system.ruby.network.routers00.crossbar_activity       754691                       (Unspecified)
system.ruby.network.routers00.sw_input_arbiter_activity       913171                       (Unspecified)
system.ruby.network.routers00.sw_output_arbiter_activity       754691                       (Unspecified)
system.ruby.network.routers01.buffer_reads       344267                       (Unspecified)
system.ruby.network.routers01.buffer_writes       344267                       (Unspecified)
system.ruby.network.routers01.crossbar_activity       344267                       (Unspecified)
system.ruby.network.routers01.sw_input_arbiter_activity       349942                       (Unspecified)
system.ruby.network.routers01.sw_output_arbiter_activity       344267                       (Unspecified)
system.ruby.network.routers02.buffer_reads       228549                       (Unspecified)
system.ruby.network.routers02.buffer_writes       228549                       (Unspecified)
system.ruby.network.routers02.crossbar_activity       228549                       (Unspecified)
system.ruby.network.routers02.sw_input_arbiter_activity       231418                       (Unspecified)
system.ruby.network.routers02.sw_output_arbiter_activity       228549                       (Unspecified)
system.ruby.network.routers03.buffer_reads       114361                       (Unspecified)
system.ruby.network.routers03.buffer_writes       114361                       (Unspecified)
system.ruby.network.routers03.crossbar_activity       114361                       (Unspecified)
system.ruby.network.routers03.sw_input_arbiter_activity       114786                       (Unspecified)
system.ruby.network.routers03.sw_output_arbiter_activity       114361                       (Unspecified)
system.ruby.network.routers04.buffer_reads       363251                       (Unspecified)
system.ruby.network.routers04.buffer_writes       363251                       (Unspecified)
system.ruby.network.routers04.crossbar_activity       363251                       (Unspecified)
system.ruby.network.routers04.sw_input_arbiter_activity       465796                       (Unspecified)
system.ruby.network.routers04.sw_output_arbiter_activity       363251                       (Unspecified)
system.ruby.network.routers05.buffer_reads       142605                       (Unspecified)
system.ruby.network.routers05.buffer_writes       142605                       (Unspecified)
system.ruby.network.routers05.crossbar_activity       142605                       (Unspecified)
system.ruby.network.routers05.sw_input_arbiter_activity       148196                       (Unspecified)
system.ruby.network.routers05.sw_output_arbiter_activity       142605                       (Unspecified)
system.ruby.network.routers06.buffer_reads       116147                       (Unspecified)
system.ruby.network.routers06.buffer_writes       116147                       (Unspecified)
system.ruby.network.routers06.crossbar_activity       116147                       (Unspecified)
system.ruby.network.routers06.sw_input_arbiter_activity       119204                       (Unspecified)
system.ruby.network.routers06.sw_output_arbiter_activity       116147                       (Unspecified)
system.ruby.network.routers07.buffer_reads        91153                       (Unspecified)
system.ruby.network.routers07.buffer_writes        91153                       (Unspecified)
system.ruby.network.routers07.crossbar_activity        91153                       (Unspecified)
system.ruby.network.routers07.sw_input_arbiter_activity        91566                       (Unspecified)
system.ruby.network.routers07.sw_output_arbiter_activity        91153                       (Unspecified)
system.ruby.network.routers08.buffer_reads       241442                       (Unspecified)
system.ruby.network.routers08.buffer_writes       241442                       (Unspecified)
system.ruby.network.routers08.crossbar_activity       241442                       (Unspecified)
system.ruby.network.routers08.sw_input_arbiter_activity       303479                       (Unspecified)
system.ruby.network.routers08.sw_output_arbiter_activity       241442                       (Unspecified)
system.ruby.network.routers09.buffer_reads       121475                       (Unspecified)
system.ruby.network.routers09.buffer_writes       121475                       (Unspecified)
system.ruby.network.routers09.crossbar_activity       121475                       (Unspecified)
system.ruby.network.routers09.sw_input_arbiter_activity       127802                       (Unspecified)
system.ruby.network.routers09.sw_output_arbiter_activity       121475                       (Unspecified)
system.ruby.network.routers10.buffer_reads        94158                       (Unspecified)
system.ruby.network.routers10.buffer_writes        94158                       (Unspecified)
system.ruby.network.routers10.crossbar_activity        94158                       (Unspecified)
system.ruby.network.routers10.sw_input_arbiter_activity        97492                       (Unspecified)
system.ruby.network.routers10.sw_output_arbiter_activity        94158                       (Unspecified)
system.ruby.network.routers11.buffer_reads        69457                       (Unspecified)
system.ruby.network.routers11.buffer_writes        69457                       (Unspecified)
system.ruby.network.routers11.crossbar_activity        69457                       (Unspecified)
system.ruby.network.routers11.sw_input_arbiter_activity        69962                       (Unspecified)
system.ruby.network.routers11.sw_output_arbiter_activity        69457                       (Unspecified)
system.ruby.network.routers12.buffer_reads       119201                       (Unspecified)
system.ruby.network.routers12.buffer_writes       119201                       (Unspecified)
system.ruby.network.routers12.crossbar_activity       119201                       (Unspecified)
system.ruby.network.routers12.sw_input_arbiter_activity       126619                       (Unspecified)
system.ruby.network.routers12.sw_output_arbiter_activity       119201                       (Unspecified)
system.ruby.network.routers13.buffer_reads        95106                       (Unspecified)
system.ruby.network.routers13.buffer_writes        95106                       (Unspecified)
system.ruby.network.routers13.crossbar_activity        95106                       (Unspecified)
system.ruby.network.routers13.sw_input_arbiter_activity       101501                       (Unspecified)
system.ruby.network.routers13.sw_output_arbiter_activity        95106                       (Unspecified)
system.ruby.network.routers14.buffer_reads        69012                       (Unspecified)
system.ruby.network.routers14.buffer_writes        69012                       (Unspecified)
system.ruby.network.routers14.crossbar_activity        69012                       (Unspecified)
system.ruby.network.routers14.sw_input_arbiter_activity        72842                       (Unspecified)
system.ruby.network.routers14.sw_output_arbiter_activity        69012                       (Unspecified)
system.ruby.network.routers15.buffer_reads        45716                       (Unspecified)
system.ruby.network.routers15.buffer_writes        45716                       (Unspecified)
system.ruby.network.routers15.crossbar_activity        45716                       (Unspecified)
system.ruby.network.routers15.sw_input_arbiter_activity        46143                       (Unspecified)
system.ruby.network.routers15.sw_output_arbiter_activity        45716                       (Unspecified)

---------- End Simulation Statistics   ----------
