McPAT (version 1.3 of Feb, 2015) is computing the target processor...
 
Warning: L2cache array structure cannot satisfy latency constraint.

McPAT (version 1.3 of Feb, 2015) results  (current print level is 5)
*****************************************************************************************
  Technology 65 nm
  Interconnect metal projection= aggressive interconnect technology projection
  Core clock Rate(MHz) 1999

*****************************************************************************************
Processor: 
  Area = 1147.94 mm^2
  Peak Power = 1042.84 W
  Total Leakage = 310.022 W
  Peak Dynamic = 732.815 W
  Subthreshold Leakage = 295.347 W
  Gate Leakage = 14.6755 W
  Runtime Dynamic = 19.6364 W

  Total Cores: 16 cores 
  Device Type= ITRS high performance device type
    Area = 981.589 mm^2
    Peak Dynamic = 707.817 W
    Subthreshold Leakage = 280.555 W
    Gate Leakage = 13.401 W
    Runtime Dynamic = 19.5451 W

  Total L2s: 
  Device Type= ITRS high performance device type
    Area = 157.101 mm^2
    Peak Dynamic = 3.52247 W
    Subthreshold Leakage = 14.5072 W
    Gate Leakage = 1.25317 W
    Runtime Dynamic = 0.0251095 W

  Total NoCs (Network/Bus): 
  Device Type= ITRS high performance device type
    Area = 9.24522 mm^2
    Peak Dynamic = 21.4746 W
    Subthreshold Leakage = 0.284846 W
    Gate Leakage = 0.0212595 W
    Runtime Dynamic = 0.0661606 W

*****************************************************************************************
Core:
      Area = 61.3493 mm^2
      Peak Dynamic = 44.2386 W
      Subthreshold Leakage = 17.5347 W
      Gate Leakage = 0.837564 W
      Runtime Dynamic = 0.977526 W

      Instruction Fetch Unit:
        Area = 12.8015 mm^2
        Peak Dynamic = 6.36544 W
        Subthreshold Leakage = 2.14624 W
        Gate Leakage = 0.0938309 W
        Runtime Dynamic = 0.0353685 W

          Instruction Cache:
            Area = 3.387 mm^2
            Peak Dynamic = 1.50753 W
            Subthreshold Leakage = 0.653302 W
            Gate Leakage = 0.026836 W
            Runtime Dynamic = 0.0023305 W

          Branch Target Buffer:
            Area = 0.929417 mm^2
            Peak Dynamic = 0.0843569 W
            Subthreshold Leakage = 0.0901849 W
            Gate Leakage = 0.00212441 W
            Runtime Dynamic = 0.000807808 W

          Branch Predictor:
            Area = 0.256492 mm^2
            Peak Dynamic = 0.0739778 W
            Subthreshold Leakage = 0.0552507 W
            Gate Leakage = 0.00144552 W
            Runtime Dynamic = 0.000235197 W

              Global Predictor:
                Area = 0.0856941 mm^2
                Peak Dynamic = 0.0191787 W
                Subthreshold Leakage = 0.0197055 W
                Gate Leakage = 0.000495847 W
                Runtime Dynamic = 6.96489e-05 W

              Local Predictor:
              L1_Local Predictor:
                Area = 0.0483655 mm^2
                Peak Dynamic = 0.0163721 W
                Subthreshold Leakage = 0.0100013 W
                Gate Leakage = 0.000280458 W
                Runtime Dynamic = 6.20063e-05 W

              L2_Local Predictor:
                Area = 0.0253579 mm^2
                Peak Dynamic = 0.00834565 W
                Subthreshold Leakage = 0.0050708 W
                Gate Leakage = 0.000147753 W
                Runtime Dynamic = 3.16097e-05 W

              Chooser:
                Area = 0.0856941 mm^2
                Peak Dynamic = 0.0191787 W
                Subthreshold Leakage = 0.0197055 W
                Gate Leakage = 0.000495847 W
                Runtime Dynamic = 6.96489e-05 W

              RAS:
                Area = 0.0113805 mm^2
                Peak Dynamic = 0.0109026 W
                Subthreshold Leakage = 0.000767647 W
                Gate Leakage = 2.56146e-05 W
                Runtime Dynamic = 2.28342e-06 W

          Instruction Buffer:
            Area = 0.0602122 mm^2
            Peak Dynamic = 1.67657 W
            Subthreshold Leakage = 0.00576253 W
            Gate Leakage = 0.00018516 W
            Runtime Dynamic = 0.00593965 W

          Instruction Decoder:
            Area = 7.75308 mm^2
            Peak Dynamic = 2.66207 W
            Subthreshold Leakage = 1.1189 W
            Gate Leakage = 0.0381395 W
            Runtime Dynamic = 0.00943101 W

      Renaming Unit:
        Area = 1.23784 mm^2
        Peak Dynamic = 8.24718 W
        Subthreshold Leakage = 0.236699 W
        Gate Leakage = 0.0255856 W
        Runtime Dynamic = 0.0828019 W

          Int Front End RAT with 1 internal checkpoints:
            Area = 0.184722 mm^2
            Peak Dynamic = 5.14163 W
            Subthreshold Leakage = 0.00273136 W
            Gate Leakage = 0.000106646 W
            Runtime Dynamic = 0.0140636 W

          FP Front End RAT with 1 internal checkpoints:
            Area = 0.025747 mm^2
            Peak Dynamic = 1.25552 W
            Subthreshold Leakage = 0.000877353 W
            Gate Leakage = 5.24626e-05 W
            Runtime Dynamic = 0.000852322 W

          Free List:
            Area = 0.480797 mm^2
            Peak Dynamic = 0.251514 W
            Subthreshold Leakage = 0.00659346 W
            Gate Leakage = 0.000203822 W
            Runtime Dynamic = 0.00133743 W

          FP Free List:
            Area = 0.131231 mm^2
            Peak Dynamic = 0.154797 W
            Subthreshold Leakage = 0.00365632 W
            Gate Leakage = 0.000122342 W
            Runtime Dynamic = 5.10542e-05 W

      Load Store Unit:
        Area = 14.8953 mm^2
        Peak Dynamic = 6.43431 W
        Subthreshold Leakage = 2.53356 W
        Gate Leakage = 0.125582 W
        Runtime Dynamic = 0.031644 W

          Data Cache:
            Area = 11.9681 mm^2
            Peak Dynamic = 5.56525 W
            Subthreshold Leakage = 2.16076 W
            Gate Leakage = 0.093823 W
            Runtime Dynamic = 0.00634039 W

          LoadQ:
            Area = 0.597754 mm^2
            Peak Dynamic = 0.254064 W
            Subthreshold Leakage = 0.0749804 W
            Gate Leakage = 0.00332956 W
            Runtime Dynamic = 0.00289308 W

          StoreQ:
            Area = 0.597754 mm^2
            Peak Dynamic = 0.254064 W
            Subthreshold Leakage = 0.0749804 W
            Gate Leakage = 0.00332956 W
            Runtime Dynamic = 0.00578616 W

      Memory Management Unit:
        Area = 0.85051 mm^2
        Peak Dynamic = 0.984785 W
        Subthreshold Leakage = 0.281996 W
        Runtime Dynamic = 0.0420692 W

          Itlb:
            Area = 0.104115 mm^2
            Peak Dynamic = 0.0198463 W
            Subthreshold Leakage = 0.0168404 W
            Gate Leakage = 0.000696321 W
            Runtime Dynamic = 0 W

          Dtlb:
            Area = 0.331051 mm^2
            Peak Dynamic = 0.0626126 W
            Subthreshold Leakage = 0.0423145 W
            Gate Leakage = 0.00180917 W
            Runtime Dynamic = 0.000508236 W

      Execution Unit:
        Area = 23.098 mm^2
        Peak Dynamic = 22.2069 W
        Subthreshold Leakage = 5.94234 W
        Runtime Dynamic = 0.785642 W

          Register Files:
            Area = 9.35294 mm^2
            Peak Dynamic = 8.61065 W
            Subthreshold Leakage = 0.183607 W
            Gate Leakage = 0.00649419 W
            Runtime Dynamic = 0.0117009 W

              Integer RF:
                Area = 4.67647 mm^2
                Peak Dynamic = 6.91996 W
                Subthreshold Leakage = 0.0918036 W
                Gate Leakage = 0.00324709 W
                Runtime Dynamic = 0.0111687 W

              Floating Point RF:
                Area = 4.67647 mm^2
                Peak Dynamic = 1.69068 W
                Subthreshold Leakage = 0.0918036 W
                Gate Leakage = 0.00324709 W
                Runtime Dynamic = 0.000532268 W

          Instruction Scheduler:
            Area = 2.5025 mm^2
            Peak Dynamic = 4.84103 W
            Subthreshold Leakage = 0.100503 W
            Gate Leakage = 0.00390898 W
            Runtime Dynamic = 0.0357494 W

              Instruction Window:
                Area = 0.497673 mm^2
                Peak Dynamic = 1.50808 W
                Subthreshold Leakage = 0.0358961 W
                Gate Leakage = 0.00164666 W
                Runtime Dynamic = 0.0118513 W

              FP Instruction Window:
                Area = 0.138043 mm^2
                Peak Dynamic = 0.412321 W
                Subthreshold Leakage = 0.0178333 W
                Gate Leakage = 0.00084265 W
                Runtime Dynamic = 0.000428687 W

              ROB:
                Area = 1.86679 mm^2
                Peak Dynamic = 2.92063 W
                Subthreshold Leakage = 0.0467734 W
                Gate Leakage = 0.00141967 W
                Runtime Dynamic = 0.0234695 W

          Integer ALUs (Count: 6 ):
            Area = 0.672672 mm^2
            Peak Dynamic = 2.72514 W
            Subthreshold Leakage = 1.01603 W
            Gate Leakage = 0.0454759 W
            Runtime Dynamic = 0.121592 W

          Floating Point Units (FPUs) (Count: 2 ):
            Area = 9.71959 mm^2
            Peak Dynamic = 0.88336 W
            Subthreshold Leakage = 3.67022 W
            Gate Leakage = 0.164273 W
            Runtime Dynamic = 0.330712 W

          Complex ALUs (Mul/Div) (Count: 1 ):
            Area = 0.336336 mm^2
            Peak Dynamic = 0.327362 W
            Subthreshold Leakage = 0.508016 W
            Gate Leakage = 0.0227379 W
            Runtime Dynamic = 0.21939 W

          Results Broadcast Bus:
            Area Overhead = 0.0985999 mm^2
            Peak Dynamic = 3.37561 W
            Subthreshold Leakage = 0.241117 W
            Gate Leakage = 0.010792 W
            Runtime Dynamic = 0 W

*****************************************************************************************
Core:
      Area = 61.3493 mm^2
      Peak Dynamic = 44.2386 W
      Subthreshold Leakage = 17.5347 W
      Gate Leakage = 0.837564 W
      Runtime Dynamic = 0.981145 W

      Instruction Fetch Unit:
        Area = 12.8015 mm^2
        Peak Dynamic = 6.36544 W
        Subthreshold Leakage = 2.14624 W
        Gate Leakage = 0.0938309 W
        Runtime Dynamic = 0.0346254 W

          Instruction Cache:
            Area = 3.387 mm^2
            Peak Dynamic = 1.50753 W
            Subthreshold Leakage = 0.653302 W
            Gate Leakage = 0.026836 W
            Runtime Dynamic = 0.00117446 W

          Branch Target Buffer:
            Area = 0.929417 mm^2
            Peak Dynamic = 0.0843569 W
            Subthreshold Leakage = 0.0901849 W
            Gate Leakage = 0.00212441 W
            Runtime Dynamic = 0.000810081 W

          Branch Predictor:
            Area = 0.256492 mm^2
            Peak Dynamic = 0.0739778 W
            Subthreshold Leakage = 0.0552507 W
            Gate Leakage = 0.00144552 W
            Runtime Dynamic = 0.000236646 W

              Global Predictor:
                Area = 0.0856941 mm^2
                Peak Dynamic = 0.0191787 W
                Subthreshold Leakage = 0.0197055 W
                Gate Leakage = 0.000495847 W
                Runtime Dynamic = 7.0081e-05 W

              Local Predictor:
              L1_Local Predictor:
                Area = 0.0483655 mm^2
                Peak Dynamic = 0.0163721 W
                Subthreshold Leakage = 0.0100013 W
                Gate Leakage = 0.000280458 W
                Runtime Dynamic = 6.23936e-05 W

              L2_Local Predictor:
                Area = 0.0253579 mm^2
                Peak Dynamic = 0.00834565 W
                Subthreshold Leakage = 0.0050708 W
                Gate Leakage = 0.000147753 W
                Runtime Dynamic = 3.18072e-05 W

              Chooser:
                Area = 0.0856941 mm^2
                Peak Dynamic = 0.0191787 W
                Subthreshold Leakage = 0.0197055 W
                Gate Leakage = 0.000495847 W
                Runtime Dynamic = 7.0081e-05 W

              RAS:
                Area = 0.0113805 mm^2
                Peak Dynamic = 0.0109026 W
                Subthreshold Leakage = 0.000767647 W
                Gate Leakage = 2.56146e-05 W
                Runtime Dynamic = 2.28342e-06 W

          Instruction Buffer:
            Area = 0.0602122 mm^2
            Peak Dynamic = 1.67657 W
            Subthreshold Leakage = 0.00576253 W
            Gate Leakage = 0.00018516 W
            Runtime Dynamic = 0.00596909 W

          Instruction Decoder:
            Area = 7.75308 mm^2
            Peak Dynamic = 2.66207 W
            Subthreshold Leakage = 1.1189 W
            Gate Leakage = 0.0381395 W
            Runtime Dynamic = 0.00947776 W

      Renaming Unit:
        Area = 1.23784 mm^2
        Peak Dynamic = 8.24718 W
        Subthreshold Leakage = 0.236699 W
        Gate Leakage = 0.0255856 W
        Runtime Dynamic = 0.0842446 W

          Int Front End RAT with 1 internal checkpoints:
            Area = 0.184722 mm^2
            Peak Dynamic = 5.14163 W
            Subthreshold Leakage = 0.00273136 W
            Gate Leakage = 0.000106646 W
            Runtime Dynamic = 0.0141539 W

          FP Front End RAT with 1 internal checkpoints:
            Area = 0.025747 mm^2
            Peak Dynamic = 1.25552 W
            Subthreshold Leakage = 0.000877353 W
            Gate Leakage = 5.24626e-05 W
            Runtime Dynamic = 0.000863986 W

          Free List:
            Area = 0.480797 mm^2
            Peak Dynamic = 0.251514 W
            Subthreshold Leakage = 0.00659346 W
            Gate Leakage = 0.000203822 W
            Runtime Dynamic = 0.00134564 W

          FP Free List:
            Area = 0.131231 mm^2
            Peak Dynamic = 0.154797 W
            Subthreshold Leakage = 0.00365632 W
            Gate Leakage = 0.000122342 W
            Runtime Dynamic = 5.17392e-05 W

      Load Store Unit:
        Area = 14.8953 mm^2
        Peak Dynamic = 6.43431 W
        Subthreshold Leakage = 2.53356 W
        Gate Leakage = 0.125582 W
        Runtime Dynamic = 0.0319916 W

          Data Cache:
            Area = 11.9681 mm^2
            Peak Dynamic = 5.56525 W
            Subthreshold Leakage = 2.16076 W
            Gate Leakage = 0.093823 W
            Runtime Dynamic = 0.00633106 W

          LoadQ:
            Area = 0.597754 mm^2
            Peak Dynamic = 0.254064 W
            Subthreshold Leakage = 0.0749804 W
            Gate Leakage = 0.00332956 W
            Runtime Dynamic = 0.00290107 W

          StoreQ:
            Area = 0.597754 mm^2
            Peak Dynamic = 0.254064 W
            Subthreshold Leakage = 0.0749804 W
            Gate Leakage = 0.00332956 W
            Runtime Dynamic = 0.00580215 W

      Memory Management Unit:
        Area = 0.85051 mm^2
        Peak Dynamic = 0.984785 W
        Subthreshold Leakage = 0.281996 W
        Runtime Dynamic = 0.0429038 W

          Itlb:
            Area = 0.104115 mm^2
            Peak Dynamic = 0.0198463 W
            Subthreshold Leakage = 0.0168404 W
            Gate Leakage = 0.000696321 W
            Runtime Dynamic = 0 W

          Dtlb:
            Area = 0.331051 mm^2
            Peak Dynamic = 0.0626126 W
            Subthreshold Leakage = 0.0423145 W
            Gate Leakage = 0.00180917 W
            Runtime Dynamic = 0.000510474 W

      Execution Unit:
        Area = 23.098 mm^2
        Peak Dynamic = 22.2069 W
        Subthreshold Leakage = 5.94234 W
        Runtime Dynamic = 0.78738 W

          Register Files:
            Area = 9.35294 mm^2
            Peak Dynamic = 8.61065 W
            Subthreshold Leakage = 0.183607 W
            Gate Leakage = 0.00649419 W
            Runtime Dynamic = 0.0117539 W

              Integer RF:
                Area = 4.67647 mm^2
                Peak Dynamic = 6.91996 W
                Subthreshold Leakage = 0.0918036 W
                Gate Leakage = 0.00324709 W
                Runtime Dynamic = 0.0112128 W

              Floating Point RF:
                Area = 4.67647 mm^2
                Peak Dynamic = 1.69068 W
                Subthreshold Leakage = 0.0918036 W
                Gate Leakage = 0.00324709 W
                Runtime Dynamic = 0.00054112 W

          Instruction Scheduler:
            Area = 2.5025 mm^2
            Peak Dynamic = 4.84103 W
            Subthreshold Leakage = 0.100503 W
            Gate Leakage = 0.00390898 W
            Runtime Dynamic = 0.0360209 W

              Instruction Window:
                Area = 0.497673 mm^2
                Peak Dynamic = 1.50808 W
                Subthreshold Leakage = 0.0358961 W
                Gate Leakage = 0.00164666 W
                Runtime Dynamic = 0.0119407 W

              FP Instruction Window:
                Area = 0.138043 mm^2
                Peak Dynamic = 0.412321 W
                Subthreshold Leakage = 0.0178333 W
                Gate Leakage = 0.00084265 W
                Runtime Dynamic = 0.000435349 W

              ROB:
                Area = 1.86679 mm^2
                Peak Dynamic = 2.92063 W
                Subthreshold Leakage = 0.0467734 W
                Gate Leakage = 0.00141967 W
                Runtime Dynamic = 0.0236449 W

          Integer ALUs (Count: 6 ):
            Area = 0.672672 mm^2
            Peak Dynamic = 2.72514 W
            Subthreshold Leakage = 1.01603 W
            Gate Leakage = 0.0454759 W
            Runtime Dynamic = 0.121647 W

          Floating Point Units (FPUs) (Count: 2 ):
            Area = 9.71959 mm^2
            Peak Dynamic = 0.88336 W
            Subthreshold Leakage = 3.67022 W
            Gate Leakage = 0.164273 W
            Runtime Dynamic = 0.330738 W

          Complex ALUs (Mul/Div) (Count: 1 ):
            Area = 0.336336 mm^2
            Peak Dynamic = 0.327362 W
            Subthreshold Leakage = 0.508016 W
            Gate Leakage = 0.0227379 W
            Runtime Dynamic = 0.21939 W

          Results Broadcast Bus:
            Area Overhead = 0.0985999 mm^2
            Peak Dynamic = 3.37561 W
            Subthreshold Leakage = 0.241117 W
            Gate Leakage = 0.010792 W
            Runtime Dynamic = 0 W

*****************************************************************************************
Core:
      Area = 61.3493 mm^2
      Peak Dynamic = 44.2386 W
      Subthreshold Leakage = 17.5347 W
      Gate Leakage = 0.837564 W
      Runtime Dynamic = 0.983938 W

      Instruction Fetch Unit:
        Area = 12.8015 mm^2
        Peak Dynamic = 6.36544 W
        Subthreshold Leakage = 2.14624 W
        Gate Leakage = 0.0938309 W
        Runtime Dynamic = 0.0348813 W

          Instruction Cache:
            Area = 3.387 mm^2
            Peak Dynamic = 1.50753 W
            Subthreshold Leakage = 0.653302 W
            Gate Leakage = 0.026836 W
            Runtime Dynamic = 0.00119134 W

          Branch Target Buffer:
            Area = 0.929417 mm^2
            Peak Dynamic = 0.0843569 W
            Subthreshold Leakage = 0.0901849 W
            Gate Leakage = 0.00212441 W
            Runtime Dynamic = 0.000812814 W

          Branch Predictor:
            Area = 0.256492 mm^2
            Peak Dynamic = 0.0739778 W
            Subthreshold Leakage = 0.0552507 W
            Gate Leakage = 0.00144552 W
            Runtime Dynamic = 0.000238336 W

              Global Predictor:
                Area = 0.0856941 mm^2
                Peak Dynamic = 0.0191787 W
                Subthreshold Leakage = 0.0197055 W
                Gate Leakage = 0.000495847 W
                Runtime Dynamic = 7.05884e-05 W

              Local Predictor:
              L1_Local Predictor:
                Area = 0.0483655 mm^2
                Peak Dynamic = 0.0163721 W
                Subthreshold Leakage = 0.0100013 W
                Gate Leakage = 0.000280458 W
                Runtime Dynamic = 6.28404e-05 W

              L2_Local Predictor:
                Area = 0.0253579 mm^2
                Peak Dynamic = 0.00834565 W
                Subthreshold Leakage = 0.0050708 W
                Gate Leakage = 0.000147753 W
                Runtime Dynamic = 3.2035e-05 W

              Chooser:
                Area = 0.0856941 mm^2
                Peak Dynamic = 0.0191787 W
                Subthreshold Leakage = 0.0197055 W
                Gate Leakage = 0.000495847 W
                Runtime Dynamic = 7.05884e-05 W

              RAS:
                Area = 0.0113805 mm^2
                Peak Dynamic = 0.0109026 W
                Subthreshold Leakage = 0.000767647 W
                Gate Leakage = 2.56146e-05 W
                Runtime Dynamic = 2.28342e-06 W

          Instruction Buffer:
            Area = 0.0602122 mm^2
            Peak Dynamic = 1.67657 W
            Subthreshold Leakage = 0.00576253 W
            Gate Leakage = 0.00018516 W
            Runtime Dynamic = 0.00599388 W

          Instruction Decoder:
            Area = 7.75308 mm^2
            Peak Dynamic = 2.66207 W
            Subthreshold Leakage = 1.1189 W
            Gate Leakage = 0.0381395 W
            Runtime Dynamic = 0.00951712 W

      Renaming Unit:
        Area = 1.23784 mm^2
        Peak Dynamic = 8.24718 W
        Subthreshold Leakage = 0.236699 W
        Gate Leakage = 0.0255856 W
        Runtime Dynamic = 0.0850138 W

          Int Front End RAT with 1 internal checkpoints:
            Area = 0.184722 mm^2
            Peak Dynamic = 5.14163 W
            Subthreshold Leakage = 0.00273136 W
            Gate Leakage = 0.000106646 W
            Runtime Dynamic = 0.0142455 W

          FP Front End RAT with 1 internal checkpoints:
            Area = 0.025747 mm^2
            Peak Dynamic = 1.25552 W
            Subthreshold Leakage = 0.000877353 W
            Gate Leakage = 5.24626e-05 W
            Runtime Dynamic = 0.000852054 W

          Free List:
            Area = 0.480797 mm^2
            Peak Dynamic = 0.251514 W
            Subthreshold Leakage = 0.00659346 W
            Gate Leakage = 0.000203822 W
            Runtime Dynamic = 0.00135423 W

          FP Free List:
            Area = 0.131231 mm^2
            Peak Dynamic = 0.154797 W
            Subthreshold Leakage = 0.00365632 W
            Gate Leakage = 0.000122342 W
            Runtime Dynamic = 5.10199e-05 W

      Load Store Unit:
        Area = 14.8953 mm^2
        Peak Dynamic = 6.43431 W
        Subthreshold Leakage = 2.53356 W
        Gate Leakage = 0.125582 W
        Runtime Dynamic = 0.0322273 W

          Data Cache:
            Area = 11.9681 mm^2
            Peak Dynamic = 5.56525 W
            Subthreshold Leakage = 2.16076 W
            Gate Leakage = 0.093823 W
            Runtime Dynamic = 0.00634438 W

          LoadQ:
            Area = 0.597754 mm^2
            Peak Dynamic = 0.254064 W
            Subthreshold Leakage = 0.0749804 W
            Gate Leakage = 0.00332956 W
            Runtime Dynamic = 0.00291839 W

          StoreQ:
            Area = 0.597754 mm^2
            Peak Dynamic = 0.254064 W
            Subthreshold Leakage = 0.0749804 W
            Gate Leakage = 0.00332956 W
            Runtime Dynamic = 0.00583678 W

      Memory Management Unit:
        Area = 0.85051 mm^2
        Peak Dynamic = 0.984785 W
        Subthreshold Leakage = 0.281996 W
        Runtime Dynamic = 0.0433321 W

          Itlb:
            Area = 0.104115 mm^2
            Peak Dynamic = 0.0198463 W
            Subthreshold Leakage = 0.0168404 W
            Gate Leakage = 0.000696321 W
            Runtime Dynamic = 0 W

          Dtlb:
            Area = 0.331051 mm^2
            Peak Dynamic = 0.0626126 W
            Subthreshold Leakage = 0.0423145 W
            Gate Leakage = 0.00180917 W
            Runtime Dynamic = 0.000512675 W

      Execution Unit:
        Area = 23.098 mm^2
        Peak Dynamic = 22.2069 W
        Subthreshold Leakage = 5.94234 W
        Runtime Dynamic = 0.788484 W

          Register Files:
            Area = 9.35294 mm^2
            Peak Dynamic = 8.61065 W
            Subthreshold Leakage = 0.183607 W
            Gate Leakage = 0.00649419 W
            Runtime Dynamic = 0.0117931 W

              Integer RF:
                Area = 4.67647 mm^2
                Peak Dynamic = 6.91996 W
                Subthreshold Leakage = 0.0918036 W
                Gate Leakage = 0.00324709 W
                Runtime Dynamic = 0.0112595 W

              Floating Point RF:
                Area = 4.67647 mm^2
                Peak Dynamic = 1.69068 W
                Subthreshold Leakage = 0.0918036 W
                Gate Leakage = 0.00324709 W
                Runtime Dynamic = 0.000533552 W

          Instruction Scheduler:
            Area = 2.5025 mm^2
            Peak Dynamic = 4.84103 W
            Subthreshold Leakage = 0.100503 W
            Gate Leakage = 0.00390898 W
            Runtime Dynamic = 0.0363741 W

              Instruction Window:
                Area = 0.497673 mm^2
                Peak Dynamic = 1.50808 W
                Subthreshold Leakage = 0.0358961 W
                Gate Leakage = 0.00164666 W
                Runtime Dynamic = 0.0120697 W

              FP Instruction Window:
                Area = 0.138043 mm^2
                Peak Dynamic = 0.412321 W
                Subthreshold Leakage = 0.0178333 W
                Gate Leakage = 0.00084265 W
                Runtime Dynamic = 0.000429174 W

              ROB:
                Area = 1.86679 mm^2
                Peak Dynamic = 2.92063 W
                Subthreshold Leakage = 0.0467734 W
                Gate Leakage = 0.00141967 W
                Runtime Dynamic = 0.0238752 W

          Integer ALUs (Count: 6 ):
            Area = 0.672672 mm^2
            Peak Dynamic = 2.72514 W
            Subthreshold Leakage = 1.01603 W
            Gate Leakage = 0.0454759 W
            Runtime Dynamic = 0.121703 W

          Floating Point Units (FPUs) (Count: 2 ):
            Area = 9.71959 mm^2
            Peak Dynamic = 0.88336 W
            Subthreshold Leakage = 3.67022 W
            Gate Leakage = 0.164273 W
            Runtime Dynamic = 0.330712 W

          Complex ALUs (Mul/Div) (Count: 1 ):
            Area = 0.336336 mm^2
            Peak Dynamic = 0.327362 W
            Subthreshold Leakage = 0.508016 W
            Gate Leakage = 0.0227379 W
            Runtime Dynamic = 0.21939 W

          Results Broadcast Bus:
            Area Overhead = 0.0985999 mm^2
            Peak Dynamic = 3.37561 W
            Subthreshold Leakage = 0.241117 W
            Gate Leakage = 0.010792 W
            Runtime Dynamic = 0 W

*****************************************************************************************
Core:
      Area = 61.3493 mm^2
      Peak Dynamic = 44.2386 W
      Subthreshold Leakage = 17.5347 W
      Gate Leakage = 0.837564 W
      Runtime Dynamic = 0.982459 W

      Instruction Fetch Unit:
        Area = 12.8015 mm^2
        Peak Dynamic = 6.36544 W
        Subthreshold Leakage = 2.14624 W
        Gate Leakage = 0.0938309 W
        Runtime Dynamic = 0.0347551 W

          Instruction Cache:
            Area = 3.387 mm^2
            Peak Dynamic = 1.50753 W
            Subthreshold Leakage = 0.653302 W
            Gate Leakage = 0.026836 W
            Runtime Dynamic = 0.00117799 W

          Branch Target Buffer:
            Area = 0.929417 mm^2
            Peak Dynamic = 0.0843569 W
            Subthreshold Leakage = 0.0901849 W
            Gate Leakage = 0.00212441 W
            Runtime Dynamic = 0.000811452 W

          Branch Predictor:
            Area = 0.256492 mm^2
            Peak Dynamic = 0.0739778 W
            Subthreshold Leakage = 0.0552507 W
            Gate Leakage = 0.00144552 W
            Runtime Dynamic = 0.000237618 W

              Global Predictor:
                Area = 0.0856941 mm^2
                Peak Dynamic = 0.0191787 W
                Subthreshold Leakage = 0.0197055 W
                Gate Leakage = 0.000495847 W
                Runtime Dynamic = 7.03728e-05 W

              Local Predictor:
              L1_Local Predictor:
                Area = 0.0483655 mm^2
                Peak Dynamic = 0.0163721 W
                Subthreshold Leakage = 0.0100013 W
                Gate Leakage = 0.000280458 W
                Runtime Dynamic = 6.26507e-05 W

              L2_Local Predictor:
                Area = 0.0253579 mm^2
                Peak Dynamic = 0.00834565 W
                Subthreshold Leakage = 0.0050708 W
                Gate Leakage = 0.000147753 W
                Runtime Dynamic = 3.19383e-05 W

              Chooser:
                Area = 0.0856941 mm^2
                Peak Dynamic = 0.0191787 W
                Subthreshold Leakage = 0.0197055 W
                Gate Leakage = 0.000495847 W
                Runtime Dynamic = 7.03728e-05 W

              RAS:
                Area = 0.0113805 mm^2
                Peak Dynamic = 0.0109026 W
                Subthreshold Leakage = 0.000767647 W
                Gate Leakage = 2.56146e-05 W
                Runtime Dynamic = 2.28342e-06 W

          Instruction Buffer:
            Area = 0.0602122 mm^2
            Peak Dynamic = 1.67657 W
            Subthreshold Leakage = 0.00576253 W
            Gate Leakage = 0.00018516 W
            Runtime Dynamic = 0.00598391 W

          Instruction Decoder:
            Area = 7.75308 mm^2
            Peak Dynamic = 2.66207 W
            Subthreshold Leakage = 1.1189 W
            Gate Leakage = 0.0381395 W
            Runtime Dynamic = 0.00950128 W

      Renaming Unit:
        Area = 1.23784 mm^2
        Peak Dynamic = 8.24718 W
        Subthreshold Leakage = 0.236699 W
        Gate Leakage = 0.0255856 W
        Runtime Dynamic = 0.0846028 W

          Int Front End RAT with 1 internal checkpoints:
            Area = 0.184722 mm^2
            Peak Dynamic = 5.14163 W
            Subthreshold Leakage = 0.00273136 W
            Gate Leakage = 0.000106646 W
            Runtime Dynamic = 0.0141706 W

          FP Front End RAT with 1 internal checkpoints:
            Area = 0.025747 mm^2
            Peak Dynamic = 1.25552 W
            Subthreshold Leakage = 0.000877353 W
            Gate Leakage = 5.24626e-05 W
            Runtime Dynamic = 0.000861525 W

          Free List:
            Area = 0.480797 mm^2
            Peak Dynamic = 0.251514 W
            Subthreshold Leakage = 0.00659346 W
            Gate Leakage = 0.000203822 W
            Runtime Dynamic = 0.00134762 W

          FP Free List:
            Area = 0.131231 mm^2
            Peak Dynamic = 0.154797 W
            Subthreshold Leakage = 0.00365632 W
            Gate Leakage = 0.000122342 W
            Runtime Dynamic = 5.16067e-05 W

      Load Store Unit:
        Area = 14.8953 mm^2
        Peak Dynamic = 6.43431 W
        Subthreshold Leakage = 2.53356 W
        Gate Leakage = 0.125582 W
        Runtime Dynamic = 0.0320932 W

          Data Cache:
            Area = 11.9681 mm^2
            Peak Dynamic = 5.56525 W
            Subthreshold Leakage = 2.16076 W
            Gate Leakage = 0.093823 W
            Runtime Dynamic = 0.00633192 W

          LoadQ:
            Area = 0.597754 mm^2
            Peak Dynamic = 0.254064 W
            Subthreshold Leakage = 0.0749804 W
            Gate Leakage = 0.00332956 W
            Runtime Dynamic = 0.00290614 W

          StoreQ:
            Area = 0.597754 mm^2
            Peak Dynamic = 0.254064 W
            Subthreshold Leakage = 0.0749804 W
            Gate Leakage = 0.00332956 W
            Runtime Dynamic = 0.00581227 W

      Memory Management Unit:
        Area = 0.85051 mm^2
        Peak Dynamic = 0.984785 W
        Subthreshold Leakage = 0.281996 W
        Runtime Dynamic = 0.0431195 W

          Itlb:
            Area = 0.104115 mm^2
            Peak Dynamic = 0.0198463 W
            Subthreshold Leakage = 0.0168404 W
            Gate Leakage = 0.000696321 W
            Runtime Dynamic = 0 W

          Dtlb:
            Area = 0.331051 mm^2
            Peak Dynamic = 0.0626126 W
            Subthreshold Leakage = 0.0423145 W
            Gate Leakage = 0.00180917 W
            Runtime Dynamic = 0.000512332 W

      Execution Unit:
        Area = 23.098 mm^2
        Peak Dynamic = 22.2069 W
        Subthreshold Leakage = 5.94234 W
        Runtime Dynamic = 0.787888 W

          Register Files:
            Area = 9.35294 mm^2
            Peak Dynamic = 8.61065 W
            Subthreshold Leakage = 0.183607 W
            Gate Leakage = 0.00649419 W
            Runtime Dynamic = 0.011777 W

              Integer RF:
                Area = 4.67647 mm^2
                Peak Dynamic = 6.91996 W
                Subthreshold Leakage = 0.0918036 W
                Gate Leakage = 0.00324709 W
                Runtime Dynamic = 0.0112391 W

              Floating Point RF:
                Area = 4.67647 mm^2
                Peak Dynamic = 1.69068 W
                Subthreshold Leakage = 0.0918036 W
                Gate Leakage = 0.00324709 W
                Runtime Dynamic = 0.000537981 W

          Instruction Scheduler:
            Area = 2.5025 mm^2
            Peak Dynamic = 4.84103 W
            Subthreshold Leakage = 0.100503 W
            Gate Leakage = 0.00390898 W
            Runtime Dynamic = 0.0361391 W

              Instruction Window:
                Area = 0.497673 mm^2
                Peak Dynamic = 1.50808 W
                Subthreshold Leakage = 0.0358961 W
                Gate Leakage = 0.00164666 W
                Runtime Dynamic = 0.0119875 W

              FP Instruction Window:
                Area = 0.138043 mm^2
                Peak Dynamic = 0.412321 W
                Subthreshold Leakage = 0.0178333 W
                Gate Leakage = 0.00084265 W
                Runtime Dynamic = 0.000433649 W

              ROB:
                Area = 1.86679 mm^2
                Peak Dynamic = 2.92063 W
                Subthreshold Leakage = 0.0467734 W
                Gate Leakage = 0.00141967 W
                Runtime Dynamic = 0.0237179 W

          Integer ALUs (Count: 6 ):
            Area = 0.672672 mm^2
            Peak Dynamic = 2.72514 W
            Subthreshold Leakage = 1.01603 W
            Gate Leakage = 0.0454759 W
            Runtime Dynamic = 0.121681 W

          Floating Point Units (FPUs) (Count: 2 ):
            Area = 9.71959 mm^2
            Peak Dynamic = 0.88336 W
            Subthreshold Leakage = 3.67022 W
            Gate Leakage = 0.164273 W
            Runtime Dynamic = 0.330729 W

          Complex ALUs (Mul/Div) (Count: 1 ):
            Area = 0.336336 mm^2
            Peak Dynamic = 0.327362 W
            Subthreshold Leakage = 0.508016 W
            Gate Leakage = 0.0227379 W
            Runtime Dynamic = 0.21939 W

          Results Broadcast Bus:
            Area Overhead = 0.0985999 mm^2
            Peak Dynamic = 3.37561 W
            Subthreshold Leakage = 0.241117 W
            Gate Leakage = 0.010792 W
            Runtime Dynamic = 0 W

*****************************************************************************************
Core:
      Area = 61.3493 mm^2
      Peak Dynamic = 44.2386 W
      Subthreshold Leakage = 17.5347 W
      Gate Leakage = 0.837564 W
      Runtime Dynamic = 0.965501 W

      Instruction Fetch Unit:
        Area = 12.8015 mm^2
        Peak Dynamic = 6.36544 W
        Subthreshold Leakage = 2.14624 W
        Gate Leakage = 0.0938309 W
        Runtime Dynamic = 0.0330832 W

          Instruction Cache:
            Area = 3.387 mm^2
            Peak Dynamic = 1.50753 W
            Subthreshold Leakage = 0.653302 W
            Gate Leakage = 0.026836 W
            Runtime Dynamic = 0.00108538 W

          Branch Target Buffer:
            Area = 0.929417 mm^2
            Peak Dynamic = 0.0843569 W
            Subthreshold Leakage = 0.0901849 W
            Gate Leakage = 0.00212441 W
            Runtime Dynamic = 0.000793039 W

          Branch Predictor:
            Area = 0.256492 mm^2
            Peak Dynamic = 0.0739778 W
            Subthreshold Leakage = 0.0552507 W
            Gate Leakage = 0.00144552 W
            Runtime Dynamic = 0.000232472 W

              Global Predictor:
                Area = 0.0856941 mm^2
                Peak Dynamic = 0.0191787 W
                Subthreshold Leakage = 0.0197055 W
                Gate Leakage = 0.000495847 W
                Runtime Dynamic = 6.89119e-05 W

              Local Predictor:
              L1_Local Predictor:
                Area = 0.0483655 mm^2
                Peak Dynamic = 0.0163721 W
                Subthreshold Leakage = 0.0100013 W
                Gate Leakage = 0.000280458 W
                Runtime Dynamic = 6.13025e-05 W

              L2_Local Predictor:
                Area = 0.0253579 mm^2
                Peak Dynamic = 0.00834565 W
                Subthreshold Leakage = 0.0050708 W
                Gate Leakage = 0.000147753 W
                Runtime Dynamic = 3.12509e-05 W

              Chooser:
                Area = 0.0856941 mm^2
                Peak Dynamic = 0.0191787 W
                Subthreshold Leakage = 0.0197055 W
                Gate Leakage = 0.000495847 W
                Runtime Dynamic = 6.89119e-05 W

              RAS:
                Area = 0.0113805 mm^2
                Peak Dynamic = 0.0109026 W
                Subthreshold Leakage = 0.000767647 W
                Gate Leakage = 2.56146e-05 W
                Runtime Dynamic = 2.09447e-06 W

          Instruction Buffer:
            Area = 0.0602122 mm^2
            Peak Dynamic = 1.67657 W
            Subthreshold Leakage = 0.00576253 W
            Gate Leakage = 0.00018516 W
            Runtime Dynamic = 0.00579629 W

          Instruction Decoder:
            Area = 7.75308 mm^2
            Peak Dynamic = 2.66207 W
            Subthreshold Leakage = 1.1189 W
            Gate Leakage = 0.0381395 W
            Runtime Dynamic = 0.00920338 W

      Renaming Unit:
        Area = 1.23784 mm^2
        Peak Dynamic = 8.24718 W
        Subthreshold Leakage = 0.236699 W
        Gate Leakage = 0.0255856 W
        Runtime Dynamic = 0.079847 W

          Int Front End RAT with 1 internal checkpoints:
            Area = 0.184722 mm^2
            Peak Dynamic = 5.14163 W
            Subthreshold Leakage = 0.00273136 W
            Gate Leakage = 0.000106646 W
            Runtime Dynamic = 0.0137639 W

          FP Front End RAT with 1 internal checkpoints:
            Area = 0.025747 mm^2
            Peak Dynamic = 1.25552 W
            Subthreshold Leakage = 0.000877353 W
            Gate Leakage = 5.24626e-05 W
            Runtime Dynamic = 0.00083271 W

          Free List:
            Area = 0.480797 mm^2
            Peak Dynamic = 0.251514 W
            Subthreshold Leakage = 0.00659346 W
            Gate Leakage = 0.000203822 W
            Runtime Dynamic = 0.00131003 W

          FP Free List:
            Area = 0.131231 mm^2
            Peak Dynamic = 0.154797 W
            Subthreshold Leakage = 0.00365632 W
            Gate Leakage = 0.000122342 W
            Runtime Dynamic = 4.99213e-05 W

      Load Store Unit:
        Area = 14.8953 mm^2
        Peak Dynamic = 6.43431 W
        Subthreshold Leakage = 2.53356 W
        Gate Leakage = 0.125582 W
        Runtime Dynamic = 0.0303901 W

          Data Cache:
            Area = 11.9681 mm^2
            Peak Dynamic = 5.56525 W
            Subthreshold Leakage = 2.16076 W
            Gate Leakage = 0.093823 W
            Runtime Dynamic = 0.00602696 W

          LoadQ:
            Area = 0.597754 mm^2
            Peak Dynamic = 0.254064 W
            Subthreshold Leakage = 0.0749804 W
            Gate Leakage = 0.00332956 W
            Runtime Dynamic = 0.00279686 W

          StoreQ:
            Area = 0.597754 mm^2
            Peak Dynamic = 0.254064 W
            Subthreshold Leakage = 0.0749804 W
            Gate Leakage = 0.00332956 W
            Runtime Dynamic = 0.00559372 W

      Memory Management Unit:
        Area = 0.85051 mm^2
        Peak Dynamic = 0.984785 W
        Subthreshold Leakage = 0.281996 W
        Runtime Dynamic = 0.0404229 W

          Itlb:
            Area = 0.104115 mm^2
            Peak Dynamic = 0.0198463 W
            Subthreshold Leakage = 0.0168404 W
            Gate Leakage = 0.000696321 W
            Runtime Dynamic = 0 W

          Dtlb:
            Area = 0.331051 mm^2
            Peak Dynamic = 0.0626126 W
            Subthreshold Leakage = 0.0423145 W
            Gate Leakage = 0.00180917 W
            Runtime Dynamic = 0.000491395 W

      Execution Unit:
        Area = 23.098 mm^2
        Peak Dynamic = 22.2069 W
        Subthreshold Leakage = 5.94234 W
        Runtime Dynamic = 0.781758 W

          Register Files:
            Area = 9.35294 mm^2
            Peak Dynamic = 8.61065 W
            Subthreshold Leakage = 0.183607 W
            Gate Leakage = 0.00649419 W
            Runtime Dynamic = 0.0114187 W

              Integer RF:
                Area = 4.67647 mm^2
                Peak Dynamic = 6.91996 W
                Subthreshold Leakage = 0.0918036 W
                Gate Leakage = 0.00324709 W
                Runtime Dynamic = 0.0108992 W

              Floating Point RF:
                Area = 4.67647 mm^2
                Peak Dynamic = 1.69068 W
                Subthreshold Leakage = 0.0918036 W
                Gate Leakage = 0.00324709 W
                Runtime Dynamic = 0.000519577 W

          Instruction Scheduler:
            Area = 2.5025 mm^2
            Peak Dynamic = 4.84103 W
            Subthreshold Leakage = 0.100503 W
            Gate Leakage = 0.00390898 W
            Runtime Dynamic = 0.0350595 W

              Instruction Window:
                Area = 0.497673 mm^2
                Peak Dynamic = 1.50808 W
                Subthreshold Leakage = 0.0358961 W
                Gate Leakage = 0.00164666 W
                Runtime Dynamic = 0.0116352 W

              FP Instruction Window:
                Area = 0.138043 mm^2
                Peak Dynamic = 0.412321 W
                Subthreshold Leakage = 0.0178333 W
                Gate Leakage = 0.00084265 W
                Runtime Dynamic = 0.000418441 W

              ROB:
                Area = 1.86679 mm^2
                Peak Dynamic = 2.92063 W
                Subthreshold Leakage = 0.0467734 W
                Gate Leakage = 0.00141967 W
                Runtime Dynamic = 0.0230059 W

          Integer ALUs (Count: 6 ):
            Area = 0.672672 mm^2
            Peak Dynamic = 2.72514 W
            Subthreshold Leakage = 1.01603 W
            Gate Leakage = 0.0454759 W
            Runtime Dynamic = 0.121336 W

          Floating Point Units (FPUs) (Count: 2 ):
            Area = 9.71959 mm^2
            Peak Dynamic = 0.88336 W
            Subthreshold Leakage = 3.67022 W
            Gate Leakage = 0.164273 W
            Runtime Dynamic = 0.330663 W

          Complex ALUs (Mul/Div) (Count: 1 ):
            Area = 0.336336 mm^2
            Peak Dynamic = 0.327362 W
            Subthreshold Leakage = 0.508016 W
            Gate Leakage = 0.0227379 W
            Runtime Dynamic = 0.21939 W

          Results Broadcast Bus:
            Area Overhead = 0.0985999 mm^2
            Peak Dynamic = 3.37561 W
            Subthreshold Leakage = 0.241117 W
            Gate Leakage = 0.010792 W
            Runtime Dynamic = 0 W

*****************************************************************************************
Core:
      Area = 61.3493 mm^2
      Peak Dynamic = 44.2386 W
      Subthreshold Leakage = 17.5347 W
      Gate Leakage = 0.837564 W
      Runtime Dynamic = 0.987064 W

      Instruction Fetch Unit:
        Area = 12.8015 mm^2
        Peak Dynamic = 6.36544 W
        Subthreshold Leakage = 2.14624 W
        Gate Leakage = 0.0938309 W
        Runtime Dynamic = 0.0351024 W

          Instruction Cache:
            Area = 3.387 mm^2
            Peak Dynamic = 1.50753 W
            Subthreshold Leakage = 0.653302 W
            Gate Leakage = 0.026836 W
            Runtime Dynamic = 0.00118151 W

          Branch Target Buffer:
            Area = 0.929417 mm^2
            Peak Dynamic = 0.0843569 W
            Subthreshold Leakage = 0.0901849 W
            Gate Leakage = 0.00212441 W
            Runtime Dynamic = 0.000811337 W

          Branch Predictor:
            Area = 0.256492 mm^2
            Peak Dynamic = 0.0739778 W
            Subthreshold Leakage = 0.0552507 W
            Gate Leakage = 0.00144552 W
            Runtime Dynamic = 0.000237464 W

              Global Predictor:
                Area = 0.0856941 mm^2
                Peak Dynamic = 0.0191787 W
                Subthreshold Leakage = 0.0197055 W
                Gate Leakage = 0.000495847 W
                Runtime Dynamic = 7.03268e-05 W

              Local Predictor:
              L1_Local Predictor:
                Area = 0.0483655 mm^2
                Peak Dynamic = 0.0163721 W
                Subthreshold Leakage = 0.0100013 W
                Gate Leakage = 0.000280458 W
                Runtime Dynamic = 6.26097e-05 W

              L2_Local Predictor:
                Area = 0.0253579 mm^2
                Peak Dynamic = 0.00834565 W
                Subthreshold Leakage = 0.0050708 W
                Gate Leakage = 0.000147753 W
                Runtime Dynamic = 3.19173e-05 W

              Chooser:
                Area = 0.0856941 mm^2
                Peak Dynamic = 0.0191787 W
                Subthreshold Leakage = 0.0197055 W
                Gate Leakage = 0.000495847 W
                Runtime Dynamic = 7.03268e-05 W

              RAS:
                Area = 0.0113805 mm^2
                Peak Dynamic = 0.0109026 W
                Subthreshold Leakage = 0.000767647 W
                Gate Leakage = 2.56146e-05 W
                Runtime Dynamic = 2.28342e-06 W

          Instruction Buffer:
            Area = 0.0602122 mm^2
            Peak Dynamic = 1.67657 W
            Subthreshold Leakage = 0.00576253 W
            Gate Leakage = 0.00018516 W
            Runtime Dynamic = 0.00597806 W

          Instruction Decoder:
            Area = 7.75308 mm^2
            Peak Dynamic = 2.66207 W
            Subthreshold Leakage = 1.1189 W
            Gate Leakage = 0.0381395 W
            Runtime Dynamic = 0.009492 W

      Renaming Unit:
        Area = 1.23784 mm^2
        Peak Dynamic = 8.24718 W
        Subthreshold Leakage = 0.236699 W
        Gate Leakage = 0.0255856 W
        Runtime Dynamic = 0.0860334 W

          Int Front End RAT with 1 internal checkpoints:
            Area = 0.184722 mm^2
            Peak Dynamic = 5.14163 W
            Subthreshold Leakage = 0.00273136 W
            Gate Leakage = 0.000106646 W
            Runtime Dynamic = 0.0141699 W

          FP Front End RAT with 1 internal checkpoints:
            Area = 0.025747 mm^2
            Peak Dynamic = 1.25552 W
            Subthreshold Leakage = 0.000877353 W
            Gate Leakage = 5.24626e-05 W
            Runtime Dynamic = 0.000856593 W

          Free List:
            Area = 0.480797 mm^2
            Peak Dynamic = 0.251514 W
            Subthreshold Leakage = 0.00659346 W
            Gate Leakage = 0.000203822 W
            Runtime Dynamic = 0.00134736 W

          FP Free List:
            Area = 0.131231 mm^2
            Peak Dynamic = 0.154797 W
            Subthreshold Leakage = 0.00365632 W
            Gate Leakage = 0.000122342 W
            Runtime Dynamic = 5.13039e-05 W

      Load Store Unit:
        Area = 14.8953 mm^2
        Peak Dynamic = 6.43431 W
        Subthreshold Leakage = 2.53356 W
        Gate Leakage = 0.125582 W
        Runtime Dynamic = 0.0324523 W

          Data Cache:
            Area = 11.9681 mm^2
            Peak Dynamic = 5.56525 W
            Subthreshold Leakage = 2.16076 W
            Gate Leakage = 0.093823 W
            Runtime Dynamic = 0.00633951 W

          LoadQ:
            Area = 0.597754 mm^2
            Peak Dynamic = 0.254064 W
            Subthreshold Leakage = 0.0749804 W
            Gate Leakage = 0.00332956 W
            Runtime Dynamic = 0.00290358 W

          StoreQ:
            Area = 0.597754 mm^2
            Peak Dynamic = 0.254064 W
            Subthreshold Leakage = 0.0749804 W
            Gate Leakage = 0.00332956 W
            Runtime Dynamic = 0.00580716 W

      Memory Management Unit:
        Area = 0.85051 mm^2
        Peak Dynamic = 0.984785 W
        Subthreshold Leakage = 0.281996 W
        Runtime Dynamic = 0.044017 W

          Itlb:
            Area = 0.104115 mm^2
            Peak Dynamic = 0.0198463 W
            Subthreshold Leakage = 0.0168404 W
            Gate Leakage = 0.000696321 W
            Runtime Dynamic = 0 W

          Dtlb:
            Area = 0.331051 mm^2
            Peak Dynamic = 0.0626126 W
            Subthreshold Leakage = 0.0423145 W
            Gate Leakage = 0.00180917 W
            Runtime Dynamic = 0.000511832 W

      Execution Unit:
        Area = 23.098 mm^2
        Peak Dynamic = 22.2069 W
        Subthreshold Leakage = 5.94234 W
        Runtime Dynamic = 0.789459 W

          Register Files:
            Area = 9.35294 mm^2
            Peak Dynamic = 8.61065 W
            Subthreshold Leakage = 0.183607 W
            Gate Leakage = 0.00649419 W
            Runtime Dynamic = 0.0117676 W

              Integer RF:
                Area = 4.67647 mm^2
                Peak Dynamic = 6.91996 W
                Subthreshold Leakage = 0.0918036 W
                Gate Leakage = 0.00324709 W
                Runtime Dynamic = 0.0112326 W

              Floating Point RF:
                Area = 4.67647 mm^2
                Peak Dynamic = 1.69068 W
                Subthreshold Leakage = 0.0918036 W
                Gate Leakage = 0.00324709 W
                Runtime Dynamic = 0.000535001 W

          Instruction Scheduler:
            Area = 2.5025 mm^2
            Peak Dynamic = 4.84103 W
            Subthreshold Leakage = 0.100503 W
            Gate Leakage = 0.00390898 W
            Runtime Dynamic = 0.0363001 W

              Instruction Window:
                Area = 0.497673 mm^2
                Peak Dynamic = 1.50808 W
                Subthreshold Leakage = 0.0358961 W
                Gate Leakage = 0.00164666 W
                Runtime Dynamic = 0.0120625 W

              FP Instruction Window:
                Area = 0.138043 mm^2
                Peak Dynamic = 0.412321 W
                Subthreshold Leakage = 0.0178333 W
                Gate Leakage = 0.00084265 W
                Runtime Dynamic = 0.00043155 W

              ROB:
                Area = 1.86679 mm^2
                Peak Dynamic = 2.92063 W
                Subthreshold Leakage = 0.0467734 W
                Gate Leakage = 0.00141967 W
                Runtime Dynamic = 0.0238061 W

          Integer ALUs (Count: 6 ):
            Area = 0.672672 mm^2
            Peak Dynamic = 2.72514 W
            Subthreshold Leakage = 1.01603 W
            Gate Leakage = 0.0454759 W
            Runtime Dynamic = 0.121672 W

          Floating Point Units (FPUs) (Count: 2 ):
            Area = 9.71959 mm^2
            Peak Dynamic = 0.88336 W
            Subthreshold Leakage = 3.67022 W
            Gate Leakage = 0.164273 W
            Runtime Dynamic = 0.330721 W

          Complex ALUs (Mul/Div) (Count: 1 ):
            Area = 0.336336 mm^2
            Peak Dynamic = 0.327362 W
            Subthreshold Leakage = 0.508016 W
            Gate Leakage = 0.0227379 W
            Runtime Dynamic = 0.21939 W

          Results Broadcast Bus:
            Area Overhead = 0.0985999 mm^2
            Peak Dynamic = 3.37561 W
            Subthreshold Leakage = 0.241117 W
            Gate Leakage = 0.010792 W
            Runtime Dynamic = 0 W

*****************************************************************************************
Core:
      Area = 61.3493 mm^2
      Peak Dynamic = 44.2386 W
      Subthreshold Leakage = 17.5347 W
      Gate Leakage = 0.837564 W
      Runtime Dynamic = 0.986779 W

      Instruction Fetch Unit:
        Area = 12.8015 mm^2
        Peak Dynamic = 6.36544 W
        Subthreshold Leakage = 2.14624 W
        Gate Leakage = 0.0938309 W
        Runtime Dynamic = 0.0350447 W

          Instruction Cache:
            Area = 3.387 mm^2
            Peak Dynamic = 1.50753 W
            Subthreshold Leakage = 0.653302 W
            Gate Leakage = 0.026836 W
            Runtime Dynamic = 0.00116763 W

          Branch Target Buffer:
            Area = 0.929417 mm^2
            Peak Dynamic = 0.0843569 W
            Subthreshold Leakage = 0.0901849 W
            Gate Leakage = 0.00212441 W
            Runtime Dynamic = 0.000809444 W

          Branch Predictor:
            Area = 0.256492 mm^2
            Peak Dynamic = 0.0739778 W
            Subthreshold Leakage = 0.0552507 W
            Gate Leakage = 0.00144552 W
            Runtime Dynamic = 0.000235925 W

              Global Predictor:
                Area = 0.0856941 mm^2
                Peak Dynamic = 0.0191787 W
                Subthreshold Leakage = 0.0197055 W
                Gate Leakage = 0.000495847 W
                Runtime Dynamic = 6.98647e-05 W

              Local Predictor:
              L1_Local Predictor:
                Area = 0.0483655 mm^2
                Peak Dynamic = 0.0163721 W
                Subthreshold Leakage = 0.0100013 W
                Gate Leakage = 0.000280458 W
                Runtime Dynamic = 6.22023e-05 W

              L2_Local Predictor:
                Area = 0.0253579 mm^2
                Peak Dynamic = 0.00834565 W
                Subthreshold Leakage = 0.0050708 W
                Gate Leakage = 0.000147753 W
                Runtime Dynamic = 3.17097e-05 W

              Chooser:
                Area = 0.0856941 mm^2
                Peak Dynamic = 0.0191787 W
                Subthreshold Leakage = 0.0197055 W
                Gate Leakage = 0.000495847 W
                Runtime Dynamic = 6.98647e-05 W

              RAS:
                Area = 0.0113805 mm^2
                Peak Dynamic = 0.0109026 W
                Subthreshold Leakage = 0.000767647 W
                Gate Leakage = 2.56146e-05 W
                Runtime Dynamic = 2.28342e-06 W

          Instruction Buffer:
            Area = 0.0602122 mm^2
            Peak Dynamic = 1.67657 W
            Subthreshold Leakage = 0.00576253 W
            Gate Leakage = 0.00018516 W
            Runtime Dynamic = 0.00596088 W

          Instruction Decoder:
            Area = 7.75308 mm^2
            Peak Dynamic = 2.66207 W
            Subthreshold Leakage = 1.1189 W
            Gate Leakage = 0.0381395 W
            Runtime Dynamic = 0.00946471 W

      Renaming Unit:
        Area = 1.23784 mm^2
        Peak Dynamic = 8.24718 W
        Subthreshold Leakage = 0.236699 W
        Gate Leakage = 0.0255856 W
        Runtime Dynamic = 0.0859918 W

          Int Front End RAT with 1 internal checkpoints:
            Area = 0.184722 mm^2
            Peak Dynamic = 5.14163 W
            Subthreshold Leakage = 0.00273136 W
            Gate Leakage = 0.000106646 W
            Runtime Dynamic = 0.0141149 W

          FP Front End RAT with 1 internal checkpoints:
            Area = 0.025747 mm^2
            Peak Dynamic = 1.25552 W
            Subthreshold Leakage = 0.000877353 W
            Gate Leakage = 5.24626e-05 W
            Runtime Dynamic = 0.000858729 W

          Free List:
            Area = 0.480797 mm^2
            Peak Dynamic = 0.251514 W
            Subthreshold Leakage = 0.00659346 W
            Gate Leakage = 0.000203822 W
            Runtime Dynamic = 0.00134208 W

          FP Free List:
            Area = 0.131231 mm^2
            Peak Dynamic = 0.154797 W
            Subthreshold Leakage = 0.00365632 W
            Gate Leakage = 0.000122342 W
            Runtime Dynamic = 5.14298e-05 W

      Load Store Unit:
        Area = 14.8953 mm^2
        Peak Dynamic = 6.43431 W
        Subthreshold Leakage = 2.53356 W
        Gate Leakage = 0.125582 W
        Runtime Dynamic = 0.0324535 W

          Data Cache:
            Area = 11.9681 mm^2
            Peak Dynamic = 5.56525 W
            Subthreshold Leakage = 2.16076 W
            Gate Leakage = 0.093823 W
            Runtime Dynamic = 0.00634509 W

          LoadQ:
            Area = 0.597754 mm^2
            Peak Dynamic = 0.254064 W
            Subthreshold Leakage = 0.0749804 W
            Gate Leakage = 0.00332956 W
            Runtime Dynamic = 0.00290075 W

          StoreQ:
            Area = 0.597754 mm^2
            Peak Dynamic = 0.254064 W
            Subthreshold Leakage = 0.0749804 W
            Gate Leakage = 0.00332956 W
            Runtime Dynamic = 0.00580151 W

      Memory Management Unit:
        Area = 0.85051 mm^2
        Peak Dynamic = 0.984785 W
        Subthreshold Leakage = 0.281996 W
        Runtime Dynamic = 0.0440261 W

          Itlb:
            Area = 0.104115 mm^2
            Peak Dynamic = 0.0198463 W
            Subthreshold Leakage = 0.0168404 W
            Gate Leakage = 0.000696321 W
            Runtime Dynamic = 0 W

          Dtlb:
            Area = 0.331051 mm^2
            Peak Dynamic = 0.0626126 W
            Subthreshold Leakage = 0.0423145 W
            Gate Leakage = 0.00180917 W
            Runtime Dynamic = 0.000510749 W

      Execution Unit:
        Area = 23.098 mm^2
        Peak Dynamic = 22.2069 W
        Subthreshold Leakage = 5.94234 W
        Runtime Dynamic = 0.789263 W

          Register Files:
            Area = 9.35294 mm^2
            Peak Dynamic = 8.61065 W
            Subthreshold Leakage = 0.183607 W
            Gate Leakage = 0.00649419 W
            Runtime Dynamic = 0.0117365 W

              Integer RF:
                Area = 4.67647 mm^2
                Peak Dynamic = 6.91996 W
                Subthreshold Leakage = 0.0918036 W
                Gate Leakage = 0.00324709 W
                Runtime Dynamic = 0.0112006 W

              Floating Point RF:
                Area = 4.67647 mm^2
                Peak Dynamic = 1.69068 W
                Subthreshold Leakage = 0.0918036 W
                Gate Leakage = 0.00324709 W
                Runtime Dynamic = 0.000535942 W

          Instruction Scheduler:
            Area = 2.5025 mm^2
            Peak Dynamic = 4.84103 W
            Subthreshold Leakage = 0.100503 W
            Gate Leakage = 0.00390898 W
            Runtime Dynamic = 0.0361541 W

              Instruction Window:
                Area = 0.497673 mm^2
                Peak Dynamic = 1.50808 W
                Subthreshold Leakage = 0.0358961 W
                Gate Leakage = 0.00164666 W
                Runtime Dynamic = 0.0120174 W

              FP Instruction Window:
                Area = 0.138043 mm^2
                Peak Dynamic = 0.412321 W
                Subthreshold Leakage = 0.0178333 W
                Gate Leakage = 0.00084265 W
                Runtime Dynamic = 0.000432693 W

              ROB:
                Area = 1.86679 mm^2
                Peak Dynamic = 2.92063 W
                Subthreshold Leakage = 0.0467734 W
                Gate Leakage = 0.00141967 W
                Runtime Dynamic = 0.023704 W

          Integer ALUs (Count: 6 ):
            Area = 0.672672 mm^2
            Peak Dynamic = 2.72514 W
            Subthreshold Leakage = 1.01603 W
            Gate Leakage = 0.0454759 W
            Runtime Dynamic = 0.121628 W

          Floating Point Units (FPUs) (Count: 2 ):
            Area = 9.71959 mm^2
            Peak Dynamic = 0.88336 W
            Subthreshold Leakage = 3.67022 W
            Gate Leakage = 0.164273 W
            Runtime Dynamic = 0.330729 W

          Complex ALUs (Mul/Div) (Count: 1 ):
            Area = 0.336336 mm^2
            Peak Dynamic = 0.327362 W
            Subthreshold Leakage = 0.508016 W
            Gate Leakage = 0.0227379 W
            Runtime Dynamic = 0.21939 W

          Results Broadcast Bus:
            Area Overhead = 0.0985999 mm^2
            Peak Dynamic = 3.37561 W
            Subthreshold Leakage = 0.241117 W
            Gate Leakage = 0.010792 W
            Runtime Dynamic = 0 W

*****************************************************************************************
Core:
      Area = 61.3493 mm^2
      Peak Dynamic = 44.2386 W
      Subthreshold Leakage = 17.5347 W
      Gate Leakage = 0.837564 W
      Runtime Dynamic = 0.98918 W

      Instruction Fetch Unit:
        Area = 12.8015 mm^2
        Peak Dynamic = 6.36544 W
        Subthreshold Leakage = 2.14624 W
        Gate Leakage = 0.0938309 W
        Runtime Dynamic = 0.0353208 W

          Instruction Cache:
            Area = 3.387 mm^2
            Peak Dynamic = 1.50753 W
            Subthreshold Leakage = 0.653302 W
            Gate Leakage = 0.026836 W
            Runtime Dynamic = 0.00118385 W

          Branch Target Buffer:
            Area = 0.929417 mm^2
            Peak Dynamic = 0.0843569 W
            Subthreshold Leakage = 0.0901849 W
            Gate Leakage = 0.00212441 W
            Runtime Dynamic = 0.000812337 W

          Branch Predictor:
            Area = 0.256492 mm^2
            Peak Dynamic = 0.0739778 W
            Subthreshold Leakage = 0.0552507 W
            Gate Leakage = 0.00144552 W
            Runtime Dynamic = 0.000238185 W

              Global Predictor:
                Area = 0.0856941 mm^2
                Peak Dynamic = 0.0191787 W
                Subthreshold Leakage = 0.0197055 W
                Gate Leakage = 0.000495847 W
                Runtime Dynamic = 7.05424e-05 W

              Local Predictor:
              L1_Local Predictor:
                Area = 0.0483655 mm^2
                Peak Dynamic = 0.0163721 W
                Subthreshold Leakage = 0.0100013 W
                Gate Leakage = 0.000280458 W
                Runtime Dynamic = 6.28019e-05 W

              L2_Local Predictor:
                Area = 0.0253579 mm^2
                Peak Dynamic = 0.00834565 W
                Subthreshold Leakage = 0.0050708 W
                Gate Leakage = 0.000147753 W
                Runtime Dynamic = 3.20153e-05 W

              Chooser:
                Area = 0.0856941 mm^2
                Peak Dynamic = 0.0191787 W
                Subthreshold Leakage = 0.0197055 W
                Gate Leakage = 0.000495847 W
                Runtime Dynamic = 7.05424e-05 W

              RAS:
                Area = 0.0113805 mm^2
                Peak Dynamic = 0.0109026 W
                Subthreshold Leakage = 0.000767647 W
                Gate Leakage = 2.56146e-05 W
                Runtime Dynamic = 2.28342e-06 W

          Instruction Buffer:
            Area = 0.0602122 mm^2
            Peak Dynamic = 1.67657 W
            Subthreshold Leakage = 0.00576253 W
            Gate Leakage = 0.00018516 W
            Runtime Dynamic = 0.00601164 W

          Instruction Decoder:
            Area = 7.75308 mm^2
            Peak Dynamic = 2.66207 W
            Subthreshold Leakage = 1.1189 W
            Gate Leakage = 0.0381395 W
            Runtime Dynamic = 0.00954531 W

      Renaming Unit:
        Area = 1.23784 mm^2
        Peak Dynamic = 8.24718 W
        Subthreshold Leakage = 0.236699 W
        Gate Leakage = 0.0255856 W
        Runtime Dynamic = 0.086636 W

          Int Front End RAT with 1 internal checkpoints:
            Area = 0.184722 mm^2
            Peak Dynamic = 5.14163 W
            Subthreshold Leakage = 0.00273136 W
            Gate Leakage = 0.000106646 W
            Runtime Dynamic = 0.0142501 W

          FP Front End RAT with 1 internal checkpoints:
            Area = 0.025747 mm^2
            Peak Dynamic = 1.25552 W
            Subthreshold Leakage = 0.000877353 W
            Gate Leakage = 5.24626e-05 W
            Runtime Dynamic = 0.000860803 W

          Free List:
            Area = 0.480797 mm^2
            Peak Dynamic = 0.251514 W
            Subthreshold Leakage = 0.00659346 W
            Gate Leakage = 0.000203822 W
            Runtime Dynamic = 0.00135539 W

          FP Free List:
            Area = 0.131231 mm^2
            Peak Dynamic = 0.154797 W
            Subthreshold Leakage = 0.00365632 W
            Gate Leakage = 0.000122342 W
            Runtime Dynamic = 5.15708e-05 W

      Load Store Unit:
        Area = 14.8953 mm^2
        Peak Dynamic = 6.43431 W
        Subthreshold Leakage = 2.53356 W
        Gate Leakage = 0.125582 W
        Runtime Dynamic = 0.0326858 W

          Data Cache:
            Area = 11.9681 mm^2
            Peak Dynamic = 5.56525 W
            Subthreshold Leakage = 2.16076 W
            Gate Leakage = 0.093823 W
            Runtime Dynamic = 0.00636526 W

          LoadQ:
            Area = 0.597754 mm^2
            Peak Dynamic = 0.254064 W
            Subthreshold Leakage = 0.0749804 W
            Gate Leakage = 0.00332956 W
            Runtime Dynamic = 0.00293032 W

          StoreQ:
            Area = 0.597754 mm^2
            Peak Dynamic = 0.254064 W
            Subthreshold Leakage = 0.0749804 W
            Gate Leakage = 0.00332956 W
            Runtime Dynamic = 0.00586065 W

      Memory Management Unit:
        Area = 0.85051 mm^2
        Peak Dynamic = 0.984785 W
        Subthreshold Leakage = 0.281996 W
        Runtime Dynamic = 0.0443394 W

          Itlb:
            Area = 0.104115 mm^2
            Peak Dynamic = 0.0198463 W
            Subthreshold Leakage = 0.0168404 W
            Gate Leakage = 0.000696321 W
            Runtime Dynamic = 0 W

          Dtlb:
            Area = 0.331051 mm^2
            Peak Dynamic = 0.0626126 W
            Subthreshold Leakage = 0.0423145 W
            Gate Leakage = 0.00180917 W
            Runtime Dynamic = 0.000515568 W

      Execution Unit:
        Area = 23.098 mm^2
        Peak Dynamic = 22.2069 W
        Subthreshold Leakage = 5.94234 W
        Runtime Dynamic = 0.790198 W

          Register Files:
            Area = 9.35294 mm^2
            Peak Dynamic = 8.61065 W
            Subthreshold Leakage = 0.183607 W
            Gate Leakage = 0.00649419 W
            Runtime Dynamic = 0.0118354 W

              Integer RF:
                Area = 4.67647 mm^2
                Peak Dynamic = 6.91996 W
                Subthreshold Leakage = 0.0918036 W
                Gate Leakage = 0.00324709 W
                Runtime Dynamic = 0.0112964 W

              Floating Point RF:
                Area = 4.67647 mm^2
                Peak Dynamic = 1.69068 W
                Subthreshold Leakage = 0.0918036 W
                Gate Leakage = 0.00324709 W
                Runtime Dynamic = 0.000539001 W

          Instruction Scheduler:
            Area = 2.5025 mm^2
            Peak Dynamic = 4.84103 W
            Subthreshold Leakage = 0.100503 W
            Gate Leakage = 0.00390898 W
            Runtime Dynamic = 0.0363831 W

              Instruction Window:
                Area = 0.497673 mm^2
                Peak Dynamic = 1.50808 W
                Subthreshold Leakage = 0.0358961 W
                Gate Leakage = 0.00164666 W
                Runtime Dynamic = 0.012087 W

              FP Instruction Window:
                Area = 0.138043 mm^2
                Peak Dynamic = 0.412321 W
                Subthreshold Leakage = 0.0178333 W
                Gate Leakage = 0.00084265 W
                Runtime Dynamic = 0.000431995 W

              ROB:
                Area = 1.86679 mm^2
                Peak Dynamic = 2.92063 W
                Subthreshold Leakage = 0.0467734 W
                Gate Leakage = 0.00141967 W
                Runtime Dynamic = 0.0238641 W

          Integer ALUs (Count: 6 ):
            Area = 0.672672 mm^2
            Peak Dynamic = 2.72514 W
            Subthreshold Leakage = 1.01603 W
            Gate Leakage = 0.0454759 W
            Runtime Dynamic = 0.121739 W

          Floating Point Units (FPUs) (Count: 2 ):
            Area = 9.71959 mm^2
            Peak Dynamic = 0.88336 W
            Subthreshold Leakage = 3.67022 W
            Gate Leakage = 0.164273 W
            Runtime Dynamic = 0.330732 W

          Complex ALUs (Mul/Div) (Count: 1 ):
            Area = 0.336336 mm^2
            Peak Dynamic = 0.327362 W
            Subthreshold Leakage = 0.508016 W
            Gate Leakage = 0.0227379 W
            Runtime Dynamic = 0.21939 W

          Results Broadcast Bus:
            Area Overhead = 0.0985999 mm^2
            Peak Dynamic = 3.37561 W
            Subthreshold Leakage = 0.241117 W
            Gate Leakage = 0.010792 W
            Runtime Dynamic = 0 W

*****************************************************************************************
Core:
      Area = 61.3493 mm^2
      Peak Dynamic = 44.2386 W
      Subthreshold Leakage = 17.5347 W
      Gate Leakage = 0.837564 W
      Runtime Dynamic = 0.981882 W

      Instruction Fetch Unit:
        Area = 12.8015 mm^2
        Peak Dynamic = 6.36544 W
        Subthreshold Leakage = 2.14624 W
        Gate Leakage = 0.0938309 W
        Runtime Dynamic = 0.0346635 W

          Instruction Cache:
            Area = 3.387 mm^2
            Peak Dynamic = 1.50753 W
            Subthreshold Leakage = 0.653302 W
            Gate Leakage = 0.026836 W
            Runtime Dynamic = 0.00117447 W

          Branch Target Buffer:
            Area = 0.929417 mm^2
            Peak Dynamic = 0.0843569 W
            Subthreshold Leakage = 0.0901849 W
            Gate Leakage = 0.00212441 W
            Runtime Dynamic = 0.000808861 W

          Branch Predictor:
            Area = 0.256492 mm^2
            Peak Dynamic = 0.0739778 W
            Subthreshold Leakage = 0.0552507 W
            Gate Leakage = 0.00144552 W
            Runtime Dynamic = 0.000235961 W

              Global Predictor:
                Area = 0.0856941 mm^2
                Peak Dynamic = 0.0191787 W
                Subthreshold Leakage = 0.0197055 W
                Gate Leakage = 0.000495847 W
                Runtime Dynamic = 6.98748e-05 W

              Local Predictor:
              L1_Local Predictor:
                Area = 0.0483655 mm^2
                Peak Dynamic = 0.0163721 W
                Subthreshold Leakage = 0.0100013 W
                Gate Leakage = 0.000280458 W
                Runtime Dynamic = 6.22128e-05 W

              L2_Local Predictor:
                Area = 0.0253579 mm^2
                Peak Dynamic = 0.00834565 W
                Subthreshold Leakage = 0.0050708 W
                Gate Leakage = 0.000147753 W
                Runtime Dynamic = 3.1715e-05 W

              Chooser:
                Area = 0.0856941 mm^2
                Peak Dynamic = 0.0191787 W
                Subthreshold Leakage = 0.0197055 W
                Gate Leakage = 0.000495847 W
                Runtime Dynamic = 6.98748e-05 W

              RAS:
                Area = 0.0113805 mm^2
                Peak Dynamic = 0.0109026 W
                Subthreshold Leakage = 0.000767647 W
                Gate Leakage = 2.56146e-05 W
                Runtime Dynamic = 2.28342e-06 W

          Instruction Buffer:
            Area = 0.0602122 mm^2
            Peak Dynamic = 1.67657 W
            Subthreshold Leakage = 0.00576253 W
            Gate Leakage = 0.00018516 W
            Runtime Dynamic = 0.00595222 W

          Instruction Decoder:
            Area = 7.75308 mm^2
            Peak Dynamic = 2.66207 W
            Subthreshold Leakage = 1.1189 W
            Gate Leakage = 0.0381395 W
            Runtime Dynamic = 0.00945097 W

      Renaming Unit:
        Area = 1.23784 mm^2
        Peak Dynamic = 8.24718 W
        Subthreshold Leakage = 0.236699 W
        Gate Leakage = 0.0255856 W
        Runtime Dynamic = 0.0845118 W

          Int Front End RAT with 1 internal checkpoints:
            Area = 0.184722 mm^2
            Peak Dynamic = 5.14163 W
            Subthreshold Leakage = 0.00273136 W
            Gate Leakage = 0.000106646 W
            Runtime Dynamic = 0.0141001 W

          FP Front End RAT with 1 internal checkpoints:
            Area = 0.025747 mm^2
            Peak Dynamic = 1.25552 W
            Subthreshold Leakage = 0.000877353 W
            Gate Leakage = 5.24626e-05 W
            Runtime Dynamic = 0.000855771 W

          Free List:
            Area = 0.480797 mm^2
            Peak Dynamic = 0.251514 W
            Subthreshold Leakage = 0.00659346 W
            Gate Leakage = 0.000203822 W
            Runtime Dynamic = 0.00134076 W

          FP Free List:
            Area = 0.131231 mm^2
            Peak Dynamic = 0.154797 W
            Subthreshold Leakage = 0.00365632 W
            Gate Leakage = 0.000122342 W
            Runtime Dynamic = 5.12548e-05 W

      Load Store Unit:
        Area = 14.8953 mm^2
        Peak Dynamic = 6.43431 W
        Subthreshold Leakage = 2.53356 W
        Gate Leakage = 0.125582 W
        Runtime Dynamic = 0.0320487 W

          Data Cache:
            Area = 11.9681 mm^2
            Peak Dynamic = 5.56525 W
            Subthreshold Leakage = 2.16076 W
            Gate Leakage = 0.093823 W
            Runtime Dynamic = 0.00632461 W

          LoadQ:
            Area = 0.597754 mm^2
            Peak Dynamic = 0.254064 W
            Subthreshold Leakage = 0.0749804 W
            Gate Leakage = 0.00332956 W
            Runtime Dynamic = 0.00289436 W

          StoreQ:
            Area = 0.597754 mm^2
            Peak Dynamic = 0.254064 W
            Subthreshold Leakage = 0.0749804 W
            Gate Leakage = 0.00332956 W
            Runtime Dynamic = 0.00578872 W

      Memory Management Unit:
        Area = 0.85051 mm^2
        Peak Dynamic = 0.984785 W
        Subthreshold Leakage = 0.281996 W
        Runtime Dynamic = 0.0431114 W

          Itlb:
            Area = 0.104115 mm^2
            Peak Dynamic = 0.0198463 W
            Subthreshold Leakage = 0.0168404 W
            Gate Leakage = 0.000696321 W
            Runtime Dynamic = 0 W

          Dtlb:
            Area = 0.331051 mm^2
            Peak Dynamic = 0.0626126 W
            Subthreshold Leakage = 0.0423145 W
            Gate Leakage = 0.00180917 W
            Runtime Dynamic = 0.000508977 W

      Execution Unit:
        Area = 23.098 mm^2
        Peak Dynamic = 22.2069 W
        Subthreshold Leakage = 5.94234 W
        Runtime Dynamic = 0.787547 W

          Register Files:
            Area = 9.35294 mm^2
            Peak Dynamic = 8.61065 W
            Subthreshold Leakage = 0.183607 W
            Gate Leakage = 0.00649419 W
            Runtime Dynamic = 0.0117289 W

              Integer RF:
                Area = 4.67647 mm^2
                Peak Dynamic = 6.91996 W
                Subthreshold Leakage = 0.0918036 W
                Gate Leakage = 0.00324709 W
                Runtime Dynamic = 0.0111892 W

              Floating Point RF:
                Area = 4.67647 mm^2
                Peak Dynamic = 1.69068 W
                Subthreshold Leakage = 0.0918036 W
                Gate Leakage = 0.00324709 W
                Runtime Dynamic = 0.000539686 W

          Instruction Scheduler:
            Area = 2.5025 mm^2
            Peak Dynamic = 4.84103 W
            Subthreshold Leakage = 0.100503 W
            Gate Leakage = 0.00390898 W
            Runtime Dynamic = 0.0359187 W

              Instruction Window:
                Area = 0.497673 mm^2
                Peak Dynamic = 1.50808 W
                Subthreshold Leakage = 0.0358961 W
                Gate Leakage = 0.00164666 W
                Runtime Dynamic = 0.0119135 W

              FP Instruction Window:
                Area = 0.138043 mm^2
                Peak Dynamic = 0.412321 W
                Subthreshold Leakage = 0.0178333 W
                Gate Leakage = 0.00084265 W
                Runtime Dynamic = 0.000432606 W

              ROB:
                Area = 1.86679 mm^2
                Peak Dynamic = 2.92063 W
                Subthreshold Leakage = 0.0467734 W
                Gate Leakage = 0.00141967 W
                Runtime Dynamic = 0.0235726 W

          Integer ALUs (Count: 6 ):
            Area = 0.672672 mm^2
            Peak Dynamic = 2.72514 W
            Subthreshold Leakage = 1.01603 W
            Gate Leakage = 0.0454759 W
            Runtime Dynamic = 0.121613 W

          Floating Point Units (FPUs) (Count: 2 ):
            Area = 9.71959 mm^2
            Peak Dynamic = 0.88336 W
            Subthreshold Leakage = 3.67022 W
            Gate Leakage = 0.164273 W
            Runtime Dynamic = 0.330732 W

          Complex ALUs (Mul/Div) (Count: 1 ):
            Area = 0.336336 mm^2
            Peak Dynamic = 0.327362 W
            Subthreshold Leakage = 0.508016 W
            Gate Leakage = 0.0227379 W
            Runtime Dynamic = 0.21939 W

          Results Broadcast Bus:
            Area Overhead = 0.0985999 mm^2
            Peak Dynamic = 3.37561 W
            Subthreshold Leakage = 0.241117 W
            Gate Leakage = 0.010792 W
            Runtime Dynamic = 0 W

*****************************************************************************************
Core:
      Area = 61.3493 mm^2
      Peak Dynamic = 44.2386 W
      Subthreshold Leakage = 17.5347 W
      Gate Leakage = 0.837564 W
      Runtime Dynamic = 0.98804 W

      Instruction Fetch Unit:
        Area = 12.8015 mm^2
        Peak Dynamic = 6.36544 W
        Subthreshold Leakage = 2.14624 W
        Gate Leakage = 0.0938309 W
        Runtime Dynamic = 0.0351086 W

          Instruction Cache:
            Area = 3.387 mm^2
            Peak Dynamic = 1.50753 W
            Subthreshold Leakage = 0.653302 W
            Gate Leakage = 0.026836 W
            Runtime Dynamic = 0.0011623 W

          Branch Target Buffer:
            Area = 0.929417 mm^2
            Peak Dynamic = 0.0843569 W
            Subthreshold Leakage = 0.0901849 W
            Gate Leakage = 0.00212441 W
            Runtime Dynamic = 0.000808312 W

          Branch Predictor:
            Area = 0.256492 mm^2
            Peak Dynamic = 0.0739778 W
            Subthreshold Leakage = 0.0552507 W
            Gate Leakage = 0.00144552 W
            Runtime Dynamic = 0.000235606 W

              Global Predictor:
                Area = 0.0856941 mm^2
                Peak Dynamic = 0.0191787 W
                Subthreshold Leakage = 0.0197055 W
                Gate Leakage = 0.000495847 W
                Runtime Dynamic = 6.97739e-05 W

              Local Predictor:
              L1_Local Predictor:
                Area = 0.0483655 mm^2
                Peak Dynamic = 0.0163721 W
                Subthreshold Leakage = 0.0100013 W
                Gate Leakage = 0.000280458 W
                Runtime Dynamic = 6.21118e-05 W

              L2_Local Predictor:
                Area = 0.0253579 mm^2
                Peak Dynamic = 0.00834565 W
                Subthreshold Leakage = 0.0050708 W
                Gate Leakage = 0.000147753 W
                Runtime Dynamic = 3.16635e-05 W

              Chooser:
                Area = 0.0856941 mm^2
                Peak Dynamic = 0.0191787 W
                Subthreshold Leakage = 0.0197055 W
                Gate Leakage = 0.000495847 W
                Runtime Dynamic = 6.97739e-05 W

              RAS:
                Area = 0.0113805 mm^2
                Peak Dynamic = 0.0109026 W
                Subthreshold Leakage = 0.000767647 W
                Gate Leakage = 2.56146e-05 W
                Runtime Dynamic = 2.28342e-06 W

          Instruction Buffer:
            Area = 0.0602122 mm^2
            Peak Dynamic = 1.67657 W
            Subthreshold Leakage = 0.00576253 W
            Gate Leakage = 0.00018516 W
            Runtime Dynamic = 0.00594398 W

          Instruction Decoder:
            Area = 7.75308 mm^2
            Peak Dynamic = 2.66207 W
            Subthreshold Leakage = 1.1189 W
            Gate Leakage = 0.0381395 W
            Runtime Dynamic = 0.00943788 W

      Renaming Unit:
        Area = 1.23784 mm^2
        Peak Dynamic = 8.24718 W
        Subthreshold Leakage = 0.236699 W
        Gate Leakage = 0.0255856 W
        Runtime Dynamic = 0.0864065 W

          Int Front End RAT with 1 internal checkpoints:
            Area = 0.184722 mm^2
            Peak Dynamic = 5.14163 W
[...]
            Runtime Dynamic = 0.0129886 W

              Integer RF:
                Area = 4.67647 mm^2
                Peak Dynamic = 6.91996 W
                Subthreshold Leakage = 0.0918036 W
                Gate Leakage = 0.00324709 W
                Runtime Dynamic = 0.0120689 W

              Floating Point RF:
                Area = 4.67647 mm^2
                Peak Dynamic = 1.69068 W
                Subthreshold Leakage = 0.0918036 W
                Gate Leakage = 0.00324709 W
                Runtime Dynamic = 0.000919647 W

          Instruction Scheduler:
            Area = 2.5025 mm^2
            Peak Dynamic = 4.84103 W
            Subthreshold Leakage = 0.100503 W
            Gate Leakage = 0.00390898 W
            Runtime Dynamic = 0.0377678 W

              Instruction Window:
                Area = 0.497673 mm^2
                Peak Dynamic = 1.50808 W
                Subthreshold Leakage = 0.0358961 W
                Gate Leakage = 0.00164666 W
                Runtime Dynamic = 0.0123192 W

              FP Instruction Window:
                Area = 0.138043 mm^2
                Peak Dynamic = 0.412321 W
                Subthreshold Leakage = 0.0178333 W
                Gate Leakage = 0.00084265 W
                Runtime Dynamic = 0.000644009 W

              ROB:
                Area = 1.86679 mm^2
                Peak Dynamic = 2.92063 W
                Subthreshold Leakage = 0.0467734 W
                Gate Leakage = 0.00141967 W
                Runtime Dynamic = 0.0248046 W

          Integer ALUs (Count: 6 ):
            Area = 0.672672 mm^2
            Peak Dynamic = 2.72514 W
            Subthreshold Leakage = 1.01603 W
            Gate Leakage = 0.0454759 W
            Runtime Dynamic = 0.122329 W

          Floating Point Units (FPUs) (Count: 2 ):
            Area = 9.71959 mm^2
            Peak Dynamic = 0.88336 W
            Subthreshold Leakage = 3.67022 W
            Gate Leakage = 0.164273 W
            Runtime Dynamic = 0.332141 W

          Complex ALUs (Mul/Div) (Count: 1 ):
            Area = 0.336336 mm^2
            Peak Dynamic = 0.327362 W
            Subthreshold Leakage = 0.508016 W
            Gate Leakage = 0.0227379 W
            Runtime Dynamic = 0.21939 W

          Results Broadcast Bus:
            Area Overhead = 0.0985999 mm^2
            Peak Dynamic = 3.37561 W
            Subthreshold Leakage = 0.241117 W
            Gate Leakage = 0.010792 W
            Runtime Dynamic = 0 W

*****************************************************************************************
Core:
      Area = 61.3493 mm^2
      Peak Dynamic = 44.2386 W
      Subthreshold Leakage = 17.5347 W
      Gate Leakage = 0.837564 W
      Runtime Dynamic = 0.993238 W

      Instruction Fetch Unit:
        Area = 12.8015 mm^2
        Peak Dynamic = 6.36544 W
        Subthreshold Leakage = 2.14624 W
        Gate Leakage = 0.0938309 W
        Runtime Dynamic = 0.0355597 W

          Instruction Cache:
            Area = 3.387 mm^2
            Peak Dynamic = 1.50753 W
            Subthreshold Leakage = 0.653302 W
            Gate Leakage = 0.026836 W
            Runtime Dynamic = 0.00117579 W

          Branch Target Buffer:
            Area = 0.929417 mm^2
            Peak Dynamic = 0.0843569 W
            Subthreshold Leakage = 0.0901849 W
            Gate Leakage = 0.00212441 W
            Runtime Dynamic = 0.000808984 W

          Branch Predictor:
            Area = 0.256492 mm^2
            Peak Dynamic = 0.0739778 W
            Subthreshold Leakage = 0.0552507 W
            Gate Leakage = 0.00144552 W
            Runtime Dynamic = 0.000235656 W

              Global Predictor:
                Area = 0.0856941 mm^2
                Peak Dynamic = 0.0191787 W
                Subthreshold Leakage = 0.0197055 W
                Gate Leakage = 0.000495847 W
                Runtime Dynamic = 6.97849e-05 W

              Local Predictor:
              L1_Local Predictor:
                Area = 0.0483655 mm^2
                Peak Dynamic = 0.0163721 W
                Subthreshold Leakage = 0.0100013 W
                Gate Leakage = 0.000280458 W
                Runtime Dynamic = 6.21301e-05 W

              L2_Local Predictor:
                Area = 0.0253579 mm^2
                Peak Dynamic = 0.00834565 W
                Subthreshold Leakage = 0.0050708 W
                Gate Leakage = 0.000147753 W
                Runtime Dynamic = 3.16728e-05 W

              Chooser:
                Area = 0.0856941 mm^2
                Peak Dynamic = 0.0191787 W
                Subthreshold Leakage = 0.0197055 W
                Gate Leakage = 0.000495847 W
                Runtime Dynamic = 6.97849e-05 W

              RAS:
                Area = 0.0113805 mm^2
                Peak Dynamic = 0.0109026 W
                Subthreshold Leakage = 0.000767647 W
                Gate Leakage = 2.56146e-05 W
                Runtime Dynamic = 2.28342e-06 W

          Instruction Buffer:
            Area = 0.0602122 mm^2
            Peak Dynamic = 1.67657 W
            Subthreshold Leakage = 0.00576253 W
            Gate Leakage = 0.00018516 W
            Runtime Dynamic = 0.00595962 W

          Instruction Decoder:
            Area = 7.75308 mm^2
            Peak Dynamic = 2.66207 W
            Subthreshold Leakage = 1.1189 W
            Gate Leakage = 0.0381395 W
            Runtime Dynamic = 0.00946272 W

      Renaming Unit:
        Area = 1.23784 mm^2
        Peak Dynamic = 8.24718 W
        Subthreshold Leakage = 0.236699 W
        Gate Leakage = 0.0255856 W
        Runtime Dynamic = 0.088016 W

          Int Front End RAT with 1 internal checkpoints:
            Area = 0.184722 mm^2
            Peak Dynamic = 5.14163 W
            Subthreshold Leakage = 0.00273136 W
            Gate Leakage = 0.000106646 W
            Runtime Dynamic = 0.0140941 W

          FP Front End RAT with 1 internal checkpoints:
            Area = 0.025747 mm^2
            Peak Dynamic = 1.25552 W
            Subthreshold Leakage = 0.000877353 W
            Gate Leakage = 5.24626e-05 W
            Runtime Dynamic = 0.000862475 W

          Free List:
            Area = 0.480797 mm^2
            Peak Dynamic = 0.251514 W
            Subthreshold Leakage = 0.00659346 W
            Gate Leakage = 0.000203822 W
            Runtime Dynamic = 0.00134001 W

          FP Free List:
            Area = 0.131231 mm^2
            Peak Dynamic = 0.154797 W
            Subthreshold Leakage = 0.00365632 W
            Gate Leakage = 0.000122342 W
            Runtime Dynamic = 5.16508e-05 W

      Load Store Unit:
        Area = 14.8953 mm^2
        Peak Dynamic = 6.43431 W
        Subthreshold Leakage = 2.53356 W
        Gate Leakage = 0.125582 W
        Runtime Dynamic = 0.0329468 W

          Data Cache:
            Area = 11.9681 mm^2
            Peak Dynamic = 5.56525 W
            Subthreshold Leakage = 2.16076 W
            Gate Leakage = 0.093823 W
            Runtime Dynamic = 0.00631829 W

          LoadQ:
            Area = 0.597754 mm^2
            Peak Dynamic = 0.254064 W
            Subthreshold Leakage = 0.0749804 W
            Gate Leakage = 0.00332956 W
            Runtime Dynamic = 0.00290384 W

          StoreQ:
            Area = 0.597754 mm^2
            Peak Dynamic = 0.254064 W
            Subthreshold Leakage = 0.0749804 W
            Gate Leakage = 0.00332956 W
            Runtime Dynamic = 0.00580769 W

      Memory Management Unit:
        Area = 0.85051 mm^2
        Peak Dynamic = 0.984785 W
        Subthreshold Leakage = 0.281996 W
        Runtime Dynamic = 0.0453029 W

          Itlb:
            Area = 0.104115 mm^2
            Peak Dynamic = 0.0198463 W
            Subthreshold Leakage = 0.0168404 W
            Gate Leakage = 0.000696321 W
            Runtime Dynamic = 0 W

          Dtlb:
            Area = 0.331051 mm^2
            Peak Dynamic = 0.0626126 W
            Subthreshold Leakage = 0.0423145 W
            Gate Leakage = 0.00180917 W
            Runtime Dynamic = 0.000510519 W

      Execution Unit:
        Area = 23.098 mm^2
        Peak Dynamic = 22.2069 W
        Subthreshold Leakage = 5.94234 W
        Runtime Dynamic = 0.791412 W

          Register Files:
            Area = 9.35294 mm^2
            Peak Dynamic = 8.61065 W
            Subthreshold Leakage = 0.183607 W
            Gate Leakage = 0.00649419 W
            Runtime Dynamic = 0.0117368 W

              Integer RF:
                Area = 4.67647 mm^2
                Peak Dynamic = 6.91996 W
                Subthreshold Leakage = 0.0918036 W
                Gate Leakage = 0.00324709 W
                Runtime Dynamic = 0.0111961 W

              Floating Point RF:
                Area = 4.67647 mm^2
                Peak Dynamic = 1.69068 W
                Subthreshold Leakage = 0.0918036 W
                Gate Leakage = 0.00324709 W
                Runtime Dynamic = 0.000540743 W

          Instruction Scheduler:
            Area = 2.5025 mm^2
            Peak Dynamic = 4.84103 W
            Subthreshold Leakage = 0.100503 W
            Gate Leakage = 0.00390898 W
            Runtime Dynamic = 0.0362567 W

              Instruction Window:
                Area = 0.497673 mm^2
                Peak Dynamic = 1.50808 W
                Subthreshold Leakage = 0.0358961 W
                Gate Leakage = 0.00164666 W
                Runtime Dynamic = 0.0120699 W

              FP Instruction Window:
                Area = 0.138043 mm^2
                Peak Dynamic = 0.412321 W
                Subthreshold Leakage = 0.0178333 W
                Gate Leakage = 0.00084265 W
                Runtime Dynamic = 0.000434408 W

              ROB:
                Area = 1.86679 mm^2
                Peak Dynamic = 2.92063 W
                Subthreshold Leakage = 0.0467734 W
                Gate Leakage = 0.00141967 W
                Runtime Dynamic = 0.0237523 W

          Integer ALUs (Count: 6 ):
            Area = 0.672672 mm^2
            Peak Dynamic = 2.72514 W
            Subthreshold Leakage = 1.01603 W
            Gate Leakage = 0.0454759 W
            Runtime Dynamic = 0.121627 W

          Floating Point Units (FPUs) (Count: 2 ):
            Area = 9.71959 mm^2
            Peak Dynamic = 0.88336 W
            Subthreshold Leakage = 3.67022 W
            Gate Leakage = 0.164273 W
            Runtime Dynamic = 0.330733 W

          Complex ALUs (Mul/Div) (Count: 1 ):
            Area = 0.336336 mm^2
            Peak Dynamic = 0.327362 W
            Subthreshold Leakage = 0.508016 W
            Gate Leakage = 0.0227379 W
            Runtime Dynamic = 0.21939 W

          Results Broadcast Bus:
            Area Overhead = 0.0985999 mm^2
            Peak Dynamic = 3.37561 W
            Subthreshold Leakage = 0.241117 W
            Gate Leakage = 0.010792 W
            Runtime Dynamic = 0 W

*****************************************************************************************
Core:
      Area = 61.3493 mm^2
      Peak Dynamic = 44.2386 W
      Subthreshold Leakage = 17.5347 W
      Gate Leakage = 0.837564 W
      Runtime Dynamic = 4.76418 W

      Instruction Fetch Unit:
        Area = 12.8015 mm^2
        Peak Dynamic = 6.36544 W
        Subthreshold Leakage = 2.14624 W
        Gate Leakage = 0.0938309 W
        Runtime Dynamic = 0.542894 W

          Instruction Cache:
            Area = 3.387 mm^2
            Peak Dynamic = 1.50753 W
            Subthreshold Leakage = 0.653302 W
            Gate Leakage = 0.026836 W
            Runtime Dynamic = 0.0195345 W

          Branch Target Buffer:
            Area = 0.929417 mm^2
            Peak Dynamic = 0.0843569 W
            Subthreshold Leakage = 0.0901849 W
            Gate Leakage = 0.00212441 W
            Runtime Dynamic = 0.0108633 W

          Branch Predictor:
            Area = 0.256492 mm^2
            Peak Dynamic = 0.0739778 W
            Subthreshold Leakage = 0.0552507 W
            Gate Leakage = 0.00144552 W
            Runtime Dynamic = 0.00187605 W

              Global Predictor:
                Area = 0.0856941 mm^2
                Peak Dynamic = 0.0191787 W
                Subthreshold Leakage = 0.0197055 W
                Gate Leakage = 0.000495847 W
                Runtime Dynamic = 0.000543324 W

              Local Predictor:
              L1_Local Predictor:
                Area = 0.0483655 mm^2
                Peak Dynamic = 0.0163721 W
                Subthreshold Leakage = 0.0100013 W
                Gate Leakage = 0.000280458 W
                Runtime Dynamic = 0.000477665 W

              L2_Local Predictor:
                Area = 0.0253579 mm^2
                Peak Dynamic = 0.00834565 W
                Subthreshold Leakage = 0.0050708 W
                Gate Leakage = 0.000147753 W
                Runtime Dynamic = 0.0002435 W

              Chooser:
                Area = 0.0856941 mm^2
                Peak Dynamic = 0.0191787 W
                Subthreshold Leakage = 0.0197055 W
                Gate Leakage = 0.000495847 W
                Runtime Dynamic = 0.000543324 W

              RAS:
                Area = 0.0113805 mm^2
                Peak Dynamic = 0.0109026 W
                Subthreshold Leakage = 0.000767647 W
                Gate Leakage = 2.56146e-05 W
                Runtime Dynamic = 6.82366e-05 W

          Instruction Buffer:
            Area = 0.0602122 mm^2
            Peak Dynamic = 1.67657 W
            Subthreshold Leakage = 0.00576253 W
            Gate Leakage = 0.00018516 W
            Runtime Dynamic = 0.157872 W

          Instruction Decoder:
            Area = 7.75308 mm^2
            Peak Dynamic = 2.66207 W
            Subthreshold Leakage = 1.1189 W
            Gate Leakage = 0.0381395 W
            Runtime Dynamic = 0.25067 W

      Renaming Unit:
        Area = 1.23784 mm^2
        Peak Dynamic = 8.24718 W
        Subthreshold Leakage = 0.236699 W
        Gate Leakage = 0.0255856 W
        Runtime Dynamic = 0.76848 W

          Int Front End RAT with 1 internal checkpoints:
            Area = 0.184722 mm^2
            Peak Dynamic = 5.14163 W
            Subthreshold Leakage = 0.00273136 W
            Gate Leakage = 0.000106646 W
            Runtime Dynamic = 0.205969 W

          FP Front End RAT with 1 internal checkpoints:
            Area = 0.025747 mm^2
            Peak Dynamic = 1.25552 W
            Subthreshold Leakage = 0.000877353 W
            Gate Leakage = 5.24626e-05 W
            Runtime Dynamic = 0.126992 W

          Free List:
            Area = 0.480797 mm^2
            Peak Dynamic = 0.251514 W
            Subthreshold Leakage = 0.00659346 W
            Gate Leakage = 0.000203822 W
            Runtime Dynamic = 0.0195939 W

          FP Free List:
            Area = 0.131231 mm^2
            Peak Dynamic = 0.154797 W
            Subthreshold Leakage = 0.00365632 W
            Gate Leakage = 0.000122342 W
            Runtime Dynamic = 0.00760936 W

      Load Store Unit:
        Area = 14.8953 mm^2
        Peak Dynamic = 6.43431 W
        Subthreshold Leakage = 2.53356 W
        Gate Leakage = 0.125582 W
        Runtime Dynamic = 0.427866 W

          Data Cache:
            Area = 11.9681 mm^2
            Peak Dynamic = 5.56525 W
            Subthreshold Leakage = 2.16076 W
            Gate Leakage = 0.093823 W
            Runtime Dynamic = 0.17051 W

          LoadQ:
            Area = 0.597754 mm^2
            Peak Dynamic = 0.254064 W
            Subthreshold Leakage = 0.0749804 W
            Gate Leakage = 0.00332956 W
            Runtime Dynamic = 0.0517592 W

          StoreQ:
            Area = 0.597754 mm^2
            Peak Dynamic = 0.254064 W
            Subthreshold Leakage = 0.0749804 W
            Gate Leakage = 0.00332956 W
            Runtime Dynamic = 0.103518 W

      Memory Management Unit:
        Area = 0.85051 mm^2
        Peak Dynamic = 0.984785 W
        Subthreshold Leakage = 0.281996 W
        Runtime Dynamic = 0.272966 W

          Itlb:
            Area = 0.104115 mm^2
            Peak Dynamic = 0.0198463 W
            Subthreshold Leakage = 0.0168404 W
            Gate Leakage = 0.000696321 W
            Runtime Dynamic = 0 W

          Dtlb:
            Area = 0.331051 mm^2
            Peak Dynamic = 0.0626126 W
            Subthreshold Leakage = 0.0423145 W
            Gate Leakage = 0.00180917 W
            Runtime Dynamic = 0.0177686 W

      Execution Unit:
        Area = 23.098 mm^2
        Peak Dynamic = 22.2069 W
        Subthreshold Leakage = 5.94234 W
        Runtime Dynamic = 2.75197 W

          Register Files:
            Area = 9.35294 mm^2
            Peak Dynamic = 8.61065 W
            Subthreshold Leakage = 0.183607 W
            Gate Leakage = 0.00649419 W
            Runtime Dynamic = 0.336806 W

              Integer RF:
                Area = 4.67647 mm^2
                Peak Dynamic = 6.91996 W
                Subthreshold Leakage = 0.0918036 W
                Gate Leakage = 0.00324709 W
                Runtime Dynamic = 0.190518 W

              Floating Point RF:
                Area = 4.67647 mm^2
                Peak Dynamic = 1.69068 W
                Subthreshold Leakage = 0.0918036 W
                Gate Leakage = 0.00324709 W
                Runtime Dynamic = 0.146288 W

          Instruction Scheduler:
            Area = 2.5025 mm^2
            Peak Dynamic = 4.84103 W
            Subthreshold Leakage = 0.100503 W
            Gate Leakage = 0.00390898 W
            Runtime Dynamic = 0.72898 W

              Instruction Window:
                Area = 0.497673 mm^2
                Peak Dynamic = 1.50808 W
                Subthreshold Leakage = 0.0358961 W
                Gate Leakage = 0.00164666 W
                Runtime Dynamic = 0.152498 W

              FP Instruction Window:
                Area = 0.138043 mm^2
                Peak Dynamic = 0.412321 W
                Subthreshold Leakage = 0.0178333 W
                Gate Leakage = 0.00084265 W
                Runtime Dynamic = 0.0791499 W

              ROB:
                Area = 1.86679 mm^2
                Peak Dynamic = 2.92063 W
                Subthreshold Leakage = 0.0467734 W
                Gate Leakage = 0.00141967 W
                Runtime Dynamic = 0.497332 W

          Integer ALUs (Count: 6 ):
            Area = 0.672672 mm^2
            Peak Dynamic = 2.72514 W
            Subthreshold Leakage = 1.01603 W
            Gate Leakage = 0.0454759 W
            Runtime Dynamic = 0.292127 W

          Floating Point Units (FPUs) (Count: 2 ):
            Area = 9.71959 mm^2
            Peak Dynamic = 0.88336 W
            Subthreshold Leakage = 3.67022 W
            Gate Leakage = 0.164273 W
            Runtime Dynamic = 0.76635 W

          Complex ALUs (Mul/Div) (Count: 1 ):
            Area = 0.336336 mm^2
            Peak Dynamic = 0.327362 W
            Subthreshold Leakage = 0.508016 W
            Gate Leakage = 0.0227379 W
            Runtime Dynamic = 0.21939 W

          Results Broadcast Bus:
            Area Overhead = 0.0985999 mm^2
            Peak Dynamic = 3.37561 W
            Subthreshold Leakage = 0.241117 W
            Gate Leakage = 0.010792 W
            Runtime Dynamic = 0 W

*****************************************************************************************
L2
      Area = 157.101 mm^2
      Peak Dynamic = 3.52247 W
      Subthreshold Leakage = 14.5072 W
      Gate Leakage = 1.25317 W
      Runtime Dynamic = 0.0251095 W

*****************************************************************************************
BUSES
      Area = 9.24522 mm^2
      Peak Dynamic = 21.4746 W
      Subthreshold Leakage = 0.284846 W
      Gate Leakage = 0.0212595 W
      Runtime Dynamic = 0.0661606 W

      Bus: 
        Area = 9.24522 mm^2
        Peak Dynamic = 21.4746 W
        Subthreshold Leakage = 0.284846 W
        Gate Leakage = 0.0212595 W
        Runtime Dynamic = 0.0661606 W

*****************************************************************************************
