McPAT (version 1.3 of Feb, 2015) is computing the target processor...
 
Warning: L2cache array structure cannot satisfy latency constraint.

McPAT (version 1.3 of Feb, 2015) results  (current print level is 5)
*****************************************************************************************
  Technology 65 nm
  Interconnect metal projection= aggressive interconnect technology projection
  Core clock Rate(MHz) 1999

*****************************************************************************************
Processor: 
  Area = 1147.94 mm^2
  Peak Power = 1042.84 W
  Total Leakage = 310.022 W
  Peak Dynamic = 732.815 W
  Subthreshold Leakage = 295.347 W
  Gate Leakage = 14.6755 W
  Runtime Dynamic = 18.1716 W

  Total Cores: 16 cores 
  Device Type= ITRS high performance device type
    Area = 981.589 mm^2
    Peak Dynamic = 707.817 W
    Subthreshold Leakage = 280.555 W
    Gate Leakage = 13.401 W
    Runtime Dynamic = 18.0607 W

  Total L2s: 
  Device Type= ITRS high performance device type
    Area = 157.101 mm^2
    Peak Dynamic = 3.52247 W
    Subthreshold Leakage = 14.5072 W
    Gate Leakage = 1.25317 W
    Runtime Dynamic = 0.0305172 W

  Total NoCs (Network/Bus): 
  Device Type= ITRS high performance device type
    Area = 9.24522 mm^2
    Peak Dynamic = 21.4746 W
    Subthreshold Leakage = 0.284846 W
    Gate Leakage = 0.0212595 W
    Runtime Dynamic = 0.0803491 W

*****************************************************************************************
Core:
      Area = 61.3493 mm^2
      Peak Dynamic = 44.2386 W
      Subthreshold Leakage = 17.5347 W
      Gate Leakage = 0.837564 W
      Runtime Dynamic = 1.04877 W

      Instruction Fetch Unit:
        Area = 12.8015 mm^2
        Peak Dynamic = 6.36544 W
        Subthreshold Leakage = 2.14624 W
        Gate Leakage = 0.0938309 W
        Runtime Dynamic = 0.0434753 W

          Instruction Cache:
            Area = 3.387 mm^2
            Peak Dynamic = 1.50753 W
            Subthreshold Leakage = 0.653302 W
            Gate Leakage = 0.026836 W
            Runtime Dynamic = 0.00286684 W

          Branch Target Buffer:
            Area = 0.929417 mm^2
            Peak Dynamic = 0.0843569 W
            Subthreshold Leakage = 0.0901849 W
            Gate Leakage = 0.00212441 W
            Runtime Dynamic = 0.000994991 W

          Branch Predictor:
            Area = 0.256492 mm^2
            Peak Dynamic = 0.0739778 W
            Subthreshold Leakage = 0.0552507 W
            Gate Leakage = 0.00144552 W
            Runtime Dynamic = 0.000293892 W

              Global Predictor:
                Area = 0.0856941 mm^2
                Peak Dynamic = 0.0191787 W
                Subthreshold Leakage = 0.0197055 W
                Gate Leakage = 0.000495847 W
                Runtime Dynamic = 8.70634e-05 W

              Local Predictor:
              L1_Local Predictor:
                Area = 0.0483655 mm^2
                Peak Dynamic = 0.0163721 W
                Subthreshold Leakage = 0.0100013 W
                Gate Leakage = 0.000280458 W
                Runtime Dynamic = 7.74894e-05 W

              L2_Local Predictor:
                Area = 0.0253579 mm^2
                Peak Dynamic = 0.00834565 W
                Subthreshold Leakage = 0.0050708 W
                Gate Leakage = 0.000147753 W
                Runtime Dynamic = 3.95027e-05 W

              Chooser:
                Area = 0.0856941 mm^2
                Peak Dynamic = 0.0191787 W
                Subthreshold Leakage = 0.0197055 W
                Gate Leakage = 0.000495847 W
                Runtime Dynamic = 8.70634e-05 W

              RAS:
                Area = 0.0113805 mm^2
                Peak Dynamic = 0.0109026 W
                Subthreshold Leakage = 0.000767647 W
                Gate Leakage = 2.56146e-05 W
                Runtime Dynamic = 2.77312e-06 W

          Instruction Buffer:
            Area = 0.0602122 mm^2
            Peak Dynamic = 1.67657 W
            Subthreshold Leakage = 0.00576253 W
            Gate Leakage = 0.00018516 W
            Runtime Dynamic = 0.00739986 W

          Instruction Decoder:
            Area = 7.75308 mm^2
            Peak Dynamic = 2.66207 W
            Subthreshold Leakage = 1.1189 W
            Gate Leakage = 0.0381395 W
            Runtime Dynamic = 0.0117495 W

      Renaming Unit:
        Area = 1.23784 mm^2
        Peak Dynamic = 8.24718 W
        Subthreshold Leakage = 0.236699 W
        Gate Leakage = 0.0255856 W
        Runtime Dynamic = 0.10089 W

          Int Front End RAT with 1 internal checkpoints:
            Area = 0.184722 mm^2
            Peak Dynamic = 5.14163 W
            Subthreshold Leakage = 0.00273136 W
            Gate Leakage = 0.000106646 W
            Runtime Dynamic = 0.0174347 W

          FP Front End RAT with 1 internal checkpoints:
            Area = 0.025747 mm^2
            Peak Dynamic = 1.25552 W
            Subthreshold Leakage = 0.000877353 W
            Gate Leakage = 5.24626e-05 W
            Runtime Dynamic = 0.00105275 W

          Free List:
            Area = 0.480797 mm^2
            Peak Dynamic = 0.251514 W
            Subthreshold Leakage = 0.00659346 W
            Gate Leakage = 0.000203822 W
            Runtime Dynamic = 0.00165833 W

          FP Free List:
            Area = 0.131231 mm^2
            Peak Dynamic = 0.154797 W
            Subthreshold Leakage = 0.00365632 W
            Gate Leakage = 0.000122342 W
            Runtime Dynamic = 6.30725e-05 W

      Load Store Unit:
        Area = 14.8953 mm^2
        Peak Dynamic = 6.43431 W
        Subthreshold Leakage = 2.53356 W
        Gate Leakage = 0.125582 W
        Runtime Dynamic = 0.0387382 W

          Data Cache:
            Area = 11.9681 mm^2
            Peak Dynamic = 5.56525 W
            Subthreshold Leakage = 2.16076 W
            Gate Leakage = 0.093823 W
            Runtime Dynamic = 0.00770924 W

          LoadQ:
            Area = 0.597754 mm^2
            Peak Dynamic = 0.254064 W
            Subthreshold Leakage = 0.0749804 W
            Gate Leakage = 0.00332956 W
            Runtime Dynamic = 0.00361958 W

          StoreQ:
            Area = 0.597754 mm^2
            Peak Dynamic = 0.254064 W
            Subthreshold Leakage = 0.0749804 W
            Gate Leakage = 0.00332956 W
            Runtime Dynamic = 0.00723915 W

      Memory Management Unit:
        Area = 0.85051 mm^2
        Peak Dynamic = 0.984785 W
        Subthreshold Leakage = 0.281996 W
        Runtime Dynamic = 0.0510625 W

          Itlb:
            Area = 0.104115 mm^2
            Peak Dynamic = 0.0198463 W
            Subthreshold Leakage = 0.0168404 W
            Gate Leakage = 0.000696321 W
            Runtime Dynamic = 0 W

          Dtlb:
            Area = 0.331051 mm^2
            Peak Dynamic = 0.0626126 W
            Subthreshold Leakage = 0.0423145 W
            Gate Leakage = 0.00180917 W
            Runtime Dynamic = 0.000636909 W

      Execution Unit:
        Area = 23.098 mm^2
        Peak Dynamic = 22.2069 W
        Subthreshold Leakage = 5.94234 W
        Runtime Dynamic = 0.814607 W

          Register Files:
            Area = 9.35294 mm^2
            Peak Dynamic = 8.61065 W
            Subthreshold Leakage = 0.183607 W
            Gate Leakage = 0.00649419 W
            Runtime Dynamic = 0.0145329 W

              Integer RF:
                Area = 4.67647 mm^2
                Peak Dynamic = 6.91996 W
                Subthreshold Leakage = 0.0918036 W
                Gate Leakage = 0.00324709 W
                Runtime Dynamic = 0.0138771 W

              Floating Point RF:
                Area = 4.67647 mm^2
                Peak Dynamic = 1.69068 W
                Subthreshold Leakage = 0.0918036 W
                Gate Leakage = 0.00324709 W
                Runtime Dynamic = 0.000655808 W

          Instruction Scheduler:
            Area = 2.5025 mm^2
            Peak Dynamic = 4.84103 W
            Subthreshold Leakage = 0.100503 W
            Gate Leakage = 0.00390898 W
            Runtime Dynamic = 0.0444026 W

              Instruction Window:
                Area = 0.497673 mm^2
                Peak Dynamic = 1.50808 W
                Subthreshold Leakage = 0.0358961 W
                Gate Leakage = 0.00164666 W
                Runtime Dynamic = 0.0146996 W

              FP Instruction Window:
                Area = 0.138043 mm^2
                Peak Dynamic = 0.412321 W
                Subthreshold Leakage = 0.0178333 W
                Gate Leakage = 0.00084265 W
                Runtime Dynamic = 0.000528631 W

              ROB:
                Area = 1.86679 mm^2
                Peak Dynamic = 2.92063 W
                Subthreshold Leakage = 0.0467734 W
                Gate Leakage = 0.00141967 W
                Runtime Dynamic = 0.0291744 W

          Integer ALUs (Count: 6 ):
            Area = 0.672672 mm^2
            Peak Dynamic = 2.72514 W
            Subthreshold Leakage = 1.01603 W
            Gate Leakage = 0.0454759 W
            Runtime Dynamic = 0.124512 W

          Floating Point Units (FPUs) (Count: 2 ):
            Area = 9.71959 mm^2
            Peak Dynamic = 0.88336 W
            Subthreshold Leakage = 3.67022 W
            Gate Leakage = 0.164273 W
            Runtime Dynamic = 0.331088 W

          Complex ALUs (Mul/Div) (Count: 1 ):
            Area = 0.336336 mm^2
            Peak Dynamic = 0.327362 W
            Subthreshold Leakage = 0.508016 W
            Gate Leakage = 0.0227379 W
            Runtime Dynamic = 0.21939 W

          Results Broadcast Bus:
            Area Overhead = 0.0985999 mm^2
            Peak Dynamic = 3.37561 W
            Subthreshold Leakage = 0.241117 W
            Gate Leakage = 0.010792 W
            Runtime Dynamic = 0 W

*****************************************************************************************
Core:
      Area = 61.3493 mm^2
      Peak Dynamic = 44.2386 W
      Subthreshold Leakage = 17.5347 W
      Gate Leakage = 0.837564 W
      Runtime Dynamic = 1.04684 W

      Instruction Fetch Unit:
        Area = 12.8015 mm^2
        Peak Dynamic = 6.36544 W
        Subthreshold Leakage = 2.14624 W
        Gate Leakage = 0.0938309 W
        Runtime Dynamic = 0.041745 W

          Instruction Cache:
            Area = 3.387 mm^2
            Peak Dynamic = 1.50753 W
            Subthreshold Leakage = 0.653302 W
            Gate Leakage = 0.026836 W
            Runtime Dynamic = 0.00141819 W

          Branch Target Buffer:
            Area = 0.929417 mm^2
            Peak Dynamic = 0.0843569 W
            Subthreshold Leakage = 0.0901849 W
            Gate Leakage = 0.00212441 W
            Runtime Dynamic = 0.000981563 W

          Branch Predictor:
            Area = 0.256492 mm^2
            Peak Dynamic = 0.0739778 W
            Subthreshold Leakage = 0.0552507 W
            Gate Leakage = 0.00144552 W
            Runtime Dynamic = 0.000285509 W

              Global Predictor:
                Area = 0.0856941 mm^2
                Peak Dynamic = 0.0191787 W
                Subthreshold Leakage = 0.0197055 W
                Gate Leakage = 0.000495847 W
                Runtime Dynamic = 8.45456e-05 W

              Local Predictor:
              L1_Local Predictor:
                Area = 0.0483655 mm^2
                Peak Dynamic = 0.0163721 W
                Subthreshold Leakage = 0.0100013 W
                Gate Leakage = 0.000280458 W
                Runtime Dynamic = 7.52724e-05 W

              L2_Local Predictor:
                Area = 0.0253579 mm^2
                Peak Dynamic = 0.00834565 W
                Subthreshold Leakage = 0.0050708 W
                Gate Leakage = 0.000147753 W
                Runtime Dynamic = 3.83726e-05 W

              Chooser:
                Area = 0.0856941 mm^2
                Peak Dynamic = 0.0191787 W
                Subthreshold Leakage = 0.0197055 W
                Gate Leakage = 0.000495847 W
                Runtime Dynamic = 8.45456e-05 W

              RAS:
                Area = 0.0113805 mm^2
                Peak Dynamic = 0.0109026 W
                Subthreshold Leakage = 0.000767647 W
                Gate Leakage = 2.56146e-05 W
                Runtime Dynamic = 2.77312e-06 W

          Instruction Buffer:
            Area = 0.0602122 mm^2
            Peak Dynamic = 1.67657 W
            Subthreshold Leakage = 0.00576253 W
            Gate Leakage = 0.00018516 W
            Runtime Dynamic = 0.00722607 W

          Instruction Decoder:
            Area = 7.75308 mm^2
            Peak Dynamic = 2.66207 W
            Subthreshold Leakage = 1.1189 W
            Gate Leakage = 0.0381395 W
            Runtime Dynamic = 0.0114736 W

      Renaming Unit:
        Area = 1.23784 mm^2
        Peak Dynamic = 8.24718 W
        Subthreshold Leakage = 0.236699 W
        Gate Leakage = 0.0255856 W
        Runtime Dynamic = 0.101262 W

          Int Front End RAT with 1 internal checkpoints:
            Area = 0.184722 mm^2
            Peak Dynamic = 5.14163 W
            Subthreshold Leakage = 0.00273136 W
            Gate Leakage = 0.000106646 W
            Runtime Dynamic = 0.0170915 W

          FP Front End RAT with 1 internal checkpoints:
            Area = 0.025747 mm^2
            Peak Dynamic = 1.25552 W
            Subthreshold Leakage = 0.000877353 W
            Gate Leakage = 5.24626e-05 W
            Runtime Dynamic = 0.00104237 W

          Free List:
            Area = 0.480797 mm^2
            Peak Dynamic = 0.251514 W
            Subthreshold Leakage = 0.00659346 W
            Gate Leakage = 0.000203822 W
            Runtime Dynamic = 0.0016253 W

          FP Free List:
            Area = 0.131231 mm^2
            Peak Dynamic = 0.154797 W
            Subthreshold Leakage = 0.00365632 W
            Gate Leakage = 0.000122342 W
            Runtime Dynamic = 6.24353e-05 W

      Load Store Unit:
        Area = 14.8953 mm^2
        Peak Dynamic = 6.43431 W
        Subthreshold Leakage = 2.53356 W
        Gate Leakage = 0.125582 W
        Runtime Dynamic = 0.0385873 W

          Data Cache:
            Area = 11.9681 mm^2
            Peak Dynamic = 5.56525 W
            Subthreshold Leakage = 2.16076 W
            Gate Leakage = 0.093823 W
            Runtime Dynamic = 0.00767282 W

          LoadQ:
            Area = 0.597754 mm^2
            Peak Dynamic = 0.254064 W
            Subthreshold Leakage = 0.0749804 W
            Gate Leakage = 0.00332956 W
            Runtime Dynamic = 0.00351812 W

          StoreQ:
            Area = 0.597754 mm^2
            Peak Dynamic = 0.254064 W
            Subthreshold Leakage = 0.0749804 W
            Gate Leakage = 0.00332956 W
            Runtime Dynamic = 0.00703623 W

      Memory Management Unit:
        Area = 0.85051 mm^2
        Peak Dynamic = 0.984785 W
        Subthreshold Leakage = 0.281996 W
        Runtime Dynamic = 0.0515172 W

          Itlb:
            Area = 0.104115 mm^2
            Peak Dynamic = 0.0198463 W
            Subthreshold Leakage = 0.0168404 W
            Gate Leakage = 0.000696321 W
            Runtime Dynamic = 0 W

          Dtlb:
            Area = 0.331051 mm^2
            Peak Dynamic = 0.0626126 W
            Subthreshold Leakage = 0.0423145 W
            Gate Leakage = 0.00180917 W
            Runtime Dynamic = 0.000616955 W

      Execution Unit:
        Area = 23.098 mm^2
        Peak Dynamic = 22.2069 W
        Subthreshold Leakage = 5.94234 W
        Runtime Dynamic = 0.813733 W

          Register Files:
            Area = 9.35294 mm^2
            Peak Dynamic = 8.61065 W
            Subthreshold Leakage = 0.183607 W
            Gate Leakage = 0.00649419 W
            Runtime Dynamic = 0.0142295 W

              Integer RF:
                Area = 4.67647 mm^2
                Peak Dynamic = 6.91996 W
                Subthreshold Leakage = 0.0918036 W
                Gate Leakage = 0.00324709 W
                Runtime Dynamic = 0.0135764 W

              Floating Point RF:
                Area = 4.67647 mm^2
                Peak Dynamic = 1.69068 W
                Subthreshold Leakage = 0.0918036 W
                Gate Leakage = 0.00324709 W
                Runtime Dynamic = 0.000653125 W

          Instruction Scheduler:
            Area = 2.5025 mm^2
            Peak Dynamic = 4.84103 W
            Subthreshold Leakage = 0.100503 W
            Gate Leakage = 0.00390898 W
            Runtime Dynamic = 0.0434292 W

              Instruction Window:
                Area = 0.497673 mm^2
                Peak Dynamic = 1.50808 W
                Subthreshold Leakage = 0.0358961 W
                Gate Leakage = 0.00164666 W
                Runtime Dynamic = 0.0143892 W

              FP Instruction Window:
                Area = 0.138043 mm^2
                Peak Dynamic = 0.412321 W
                Subthreshold Leakage = 0.0178333 W
                Gate Leakage = 0.00084265 W
                Runtime Dynamic = 0.000524936 W

              ROB:
                Area = 1.86679 mm^2
                Peak Dynamic = 2.92063 W
                Subthreshold Leakage = 0.0467734 W
                Gate Leakage = 0.00141967 W
                Runtime Dynamic = 0.0285151 W

          Integer ALUs (Count: 6 ):
            Area = 0.672672 mm^2
            Peak Dynamic = 2.72514 W
            Subthreshold Leakage = 1.01603 W
            Gate Leakage = 0.0454759 W
            Runtime Dynamic = 0.124163 W

          Floating Point Units (FPUs) (Count: 2 ):
            Area = 9.71959 mm^2
            Peak Dynamic = 0.88336 W
            Subthreshold Leakage = 3.67022 W
            Gate Leakage = 0.164273 W
            Runtime Dynamic = 0.33108 W

          Complex ALUs (Mul/Div) (Count: 1 ):
            Area = 0.336336 mm^2
            Peak Dynamic = 0.327362 W
            Subthreshold Leakage = 0.508016 W
            Gate Leakage = 0.0227379 W
            Runtime Dynamic = 0.21939 W

          Results Broadcast Bus:
            Area Overhead = 0.0985999 mm^2
            Peak Dynamic = 3.37561 W
            Subthreshold Leakage = 0.241117 W
            Gate Leakage = 0.010792 W
            Runtime Dynamic = 0 W

*****************************************************************************************
Core:
      Area = 61.3493 mm^2
      Peak Dynamic = 44.2386 W
      Subthreshold Leakage = 17.5347 W
      Gate Leakage = 0.837564 W
      Runtime Dynamic = 1.0473 W

      Instruction Fetch Unit:
        Area = 12.8015 mm^2
        Peak Dynamic = 6.36544 W
        Subthreshold Leakage = 2.14624 W
        Gate Leakage = 0.0938309 W
        Runtime Dynamic = 0.0417946 W

          Instruction Cache:
            Area = 3.387 mm^2
            Peak Dynamic = 1.50753 W
            Subthreshold Leakage = 0.653302 W
            Gate Leakage = 0.026836 W
            Runtime Dynamic = 0.0014162 W

          Branch Target Buffer:
            Area = 0.929417 mm^2
            Peak Dynamic = 0.0843569 W
            Subthreshold Leakage = 0.0901849 W
            Gate Leakage = 0.00212441 W
            Runtime Dynamic = 0.0009831 W

          Branch Predictor:
            Area = 0.256492 mm^2
            Peak Dynamic = 0.0739778 W
            Subthreshold Leakage = 0.0552507 W
            Gate Leakage = 0.00144552 W
            Runtime Dynamic = 0.000286856 W

              Global Predictor:
                Area = 0.0856941 mm^2
                Peak Dynamic = 0.0191787 W
                Subthreshold Leakage = 0.0197055 W
                Gate Leakage = 0.000495847 W
                Runtime Dynamic = 8.49513e-05 W

              Local Predictor:
              L1_Local Predictor:
                Area = 0.0483655 mm^2
                Peak Dynamic = 0.0163721 W
                Subthreshold Leakage = 0.0100013 W
                Gate Leakage = 0.000280458 W
                Runtime Dynamic = 7.56272e-05 W

              L2_Local Predictor:
                Area = 0.0253579 mm^2
                Peak Dynamic = 0.00834565 W
                Subthreshold Leakage = 0.0050708 W
                Gate Leakage = 0.000147753 W
                Runtime Dynamic = 3.85534e-05 W

              Chooser:
                Area = 0.0856941 mm^2
                Peak Dynamic = 0.0191787 W
                Subthreshold Leakage = 0.0197055 W
                Gate Leakage = 0.000495847 W
                Runtime Dynamic = 8.49513e-05 W

              RAS:
                Area = 0.0113805 mm^2
                Peak Dynamic = 0.0109026 W
                Subthreshold Leakage = 0.000767647 W
                Gate Leakage = 2.56146e-05 W
                Runtime Dynamic = 2.77312e-06 W

          Instruction Buffer:
            Area = 0.0602122 mm^2
            Peak Dynamic = 1.67657 W
            Subthreshold Leakage = 0.00576253 W
            Gate Leakage = 0.00018516 W
            Runtime Dynamic = 0.00724083 W

          Instruction Decoder:
            Area = 7.75308 mm^2
            Peak Dynamic = 2.66207 W
            Subthreshold Leakage = 1.1189 W
            Gate Leakage = 0.0381395 W
            Runtime Dynamic = 0.011497 W

      Renaming Unit:
        Area = 1.23784 mm^2
        Peak Dynamic = 8.24718 W
        Subthreshold Leakage = 0.236699 W
        Gate Leakage = 0.0255856 W
        Runtime Dynamic = 0.101365 W

          Int Front End RAT with 1 internal checkpoints:
            Area = 0.184722 mm^2
            Peak Dynamic = 5.14163 W
            Subthreshold Leakage = 0.00273136 W
            Gate Leakage = 0.000106646 W
            Runtime Dynamic = 0.017158 W

          FP Front End RAT with 1 internal checkpoints:
            Area = 0.025747 mm^2
            Peak Dynamic = 1.25552 W
            Subthreshold Leakage = 0.000877353 W
            Gate Leakage = 5.24626e-05 W
            Runtime Dynamic = 0.00103099 W

          Free List:
            Area = 0.480797 mm^2
            Peak Dynamic = 0.251514 W
            Subthreshold Leakage = 0.00659346 W
            Gate Leakage = 0.000203822 W
            Runtime Dynamic = 0.00163151 W

          FP Free List:
            Area = 0.131231 mm^2
            Peak Dynamic = 0.154797 W
            Subthreshold Leakage = 0.00365632 W
            Gate Leakage = 0.000122342 W
            Runtime Dynamic = 6.17488e-05 W

      Load Store Unit:
        Area = 14.8953 mm^2
        Peak Dynamic = 6.43431 W
        Subthreshold Leakage = 2.53356 W
        Gate Leakage = 0.125582 W
        Runtime Dynamic = 0.0386496 W

          Data Cache:
            Area = 11.9681 mm^2
            Peak Dynamic = 5.56525 W
            Subthreshold Leakage = 2.16076 W
            Gate Leakage = 0.093823 W
            Runtime Dynamic = 0.00769767 W

          LoadQ:
            Area = 0.597754 mm^2
            Peak Dynamic = 0.254064 W
            Subthreshold Leakage = 0.0749804 W
            Gate Leakage = 0.00332956 W
            Runtime Dynamic = 0.00352711 W

          StoreQ:
            Area = 0.597754 mm^2
            Peak Dynamic = 0.254064 W
            Subthreshold Leakage = 0.0749804 W
            Gate Leakage = 0.00332956 W
            Runtime Dynamic = 0.00705422 W

      Memory Management Unit:
        Area = 0.85051 mm^2
        Peak Dynamic = 0.984785 W
        Subthreshold Leakage = 0.281996 W
        Runtime Dynamic = 0.0515467 W

          Itlb:
            Area = 0.104115 mm^2
            Peak Dynamic = 0.0198463 W
            Subthreshold Leakage = 0.0168404 W
            Gate Leakage = 0.000696321 W
            Runtime Dynamic = 0 W

          Dtlb:
            Area = 0.331051 mm^2
            Peak Dynamic = 0.0626126 W
            Subthreshold Leakage = 0.0423145 W
            Gate Leakage = 0.00180917 W
            Runtime Dynamic = 0.000620114 W

      Execution Unit:
        Area = 23.098 mm^2
        Peak Dynamic = 22.2069 W
        Subthreshold Leakage = 5.94234 W
        Runtime Dynamic = 0.81394 W

          Register Files:
            Area = 9.35294 mm^2
            Peak Dynamic = 8.61065 W
            Subthreshold Leakage = 0.183607 W
            Gate Leakage = 0.00649419 W
            Runtime Dynamic = 0.0142549 W

              Integer RF:
                Area = 4.67647 mm^2
                Peak Dynamic = 6.91996 W
                Subthreshold Leakage = 0.0918036 W
                Gate Leakage = 0.00324709 W
                Runtime Dynamic = 0.0136114 W

              Floating Point RF:
                Area = 4.67647 mm^2
                Peak Dynamic = 1.69068 W
                Subthreshold Leakage = 0.0918036 W
                Gate Leakage = 0.00324709 W
                Runtime Dynamic = 0.000643533 W

          Instruction Scheduler:
            Area = 2.5025 mm^2
            Peak Dynamic = 4.84103 W
            Subthreshold Leakage = 0.100503 W
            Gate Leakage = 0.00390898 W
            Runtime Dynamic = 0.0435552 W

              Instruction Window:
                Area = 0.497673 mm^2
                Peak Dynamic = 1.50808 W
                Subthreshold Leakage = 0.0358961 W
                Gate Leakage = 0.00164666 W
                Runtime Dynamic = 0.0144305 W

              FP Instruction Window:
                Area = 0.138043 mm^2
                Peak Dynamic = 0.412321 W
                Subthreshold Leakage = 0.0178333 W
                Gate Leakage = 0.00084265 W
                Runtime Dynamic = 0.000517678 W

              ROB:
                Area = 1.86679 mm^2
                Peak Dynamic = 2.92063 W
                Subthreshold Leakage = 0.0467734 W
                Gate Leakage = 0.00141967 W
                Runtime Dynamic = 0.0286071 W

          Integer ALUs (Count: 6 ):
            Area = 0.672672 mm^2
            Peak Dynamic = 2.72514 W
            Subthreshold Leakage = 1.01603 W
            Gate Leakage = 0.0454759 W
            Runtime Dynamic = 0.124205 W

          Floating Point Units (FPUs) (Count: 2 ):
            Area = 9.71959 mm^2
            Peak Dynamic = 0.88336 W
            Subthreshold Leakage = 3.67022 W
            Gate Leakage = 0.164273 W
            Runtime Dynamic = 0.331052 W

          Complex ALUs (Mul/Div) (Count: 1 ):
            Area = 0.336336 mm^2
            Peak Dynamic = 0.327362 W
            Subthreshold Leakage = 0.508016 W
            Gate Leakage = 0.0227379 W
            Runtime Dynamic = 0.21939 W

          Results Broadcast Bus:
            Area Overhead = 0.0985999 mm^2
            Peak Dynamic = 3.37561 W
            Subthreshold Leakage = 0.241117 W
            Gate Leakage = 0.010792 W
            Runtime Dynamic = 0 W

*****************************************************************************************
Core:
      Area = 61.3493 mm^2
      Peak Dynamic = 44.2386 W
      Subthreshold Leakage = 17.5347 W
      Gate Leakage = 0.837564 W
      Runtime Dynamic = 1.04941 W

      Instruction Fetch Unit:
        Area = 12.8015 mm^2
        Peak Dynamic = 6.36544 W
        Subthreshold Leakage = 2.14624 W
        Gate Leakage = 0.0938309 W
        Runtime Dynamic = 0.0419399 W

          Instruction Cache:
            Area = 3.387 mm^2
            Peak Dynamic = 1.50753 W
            Subthreshold Leakage = 0.653302 W
            Gate Leakage = 0.026836 W
            Runtime Dynamic = 0.00141147 W

          Branch Target Buffer:
            Area = 0.929417 mm^2
            Peak Dynamic = 0.0843569 W
            Subthreshold Leakage = 0.0901849 W
            Gate Leakage = 0.00212441 W
            Runtime Dynamic = 0.000982928 W

          Branch Predictor:
            Area = 0.256492 mm^2
            Peak Dynamic = 0.0739778 W
            Subthreshold Leakage = 0.0552507 W
            Gate Leakage = 0.00144552 W
            Runtime Dynamic = 0.000286796 W

              Global Predictor:
                Area = 0.0856941 mm^2
                Peak Dynamic = 0.0191787 W
                Subthreshold Leakage = 0.0197055 W
                Gate Leakage = 0.000495847 W
                Runtime Dynamic = 8.4933e-05 W

              Local Predictor:
              L1_Local Predictor:
                Area = 0.0483655 mm^2
                Peak Dynamic = 0.0163721 W
                Subthreshold Leakage = 0.0100013 W
                Gate Leakage = 0.000280458 W
                Runtime Dynamic = 7.56112e-05 W

              L2_Local Predictor:
                Area = 0.0253579 mm^2
                Peak Dynamic = 0.00834565 W
                Subthreshold Leakage = 0.0050708 W
                Gate Leakage = 0.000147753 W
                Runtime Dynamic = 3.85453e-05 W

              Chooser:
                Area = 0.0856941 mm^2
                Peak Dynamic = 0.0191787 W
                Subthreshold Leakage = 0.0197055 W
                Gate Leakage = 0.000495847 W
                Runtime Dynamic = 8.4933e-05 W

              RAS:
                Area = 0.0113805 mm^2
                Peak Dynamic = 0.0109026 W
                Subthreshold Leakage = 0.000767647 W
                Gate Leakage = 2.56146e-05 W
                Runtime Dynamic = 2.77312e-06 W

          Instruction Buffer:
            Area = 0.0602122 mm^2
            Peak Dynamic = 1.67657 W
            Subthreshold Leakage = 0.00576253 W
            Gate Leakage = 0.00018516 W
            Runtime Dynamic = 0.00722623 W

          Instruction Decoder:
            Area = 7.75308 mm^2
            Peak Dynamic = 2.66207 W
            Subthreshold Leakage = 1.1189 W
            Gate Leakage = 0.0381395 W
            Runtime Dynamic = 0.0114738 W

      Renaming Unit:
        Area = 1.23784 mm^2
        Peak Dynamic = 8.24718 W
        Subthreshold Leakage = 0.236699 W
        Gate Leakage = 0.0255856 W
        Runtime Dynamic = 0.102071 W

          Int Front End RAT with 1 internal checkpoints:
            Area = 0.184722 mm^2
            Peak Dynamic = 5.14163 W
            Subthreshold Leakage = 0.00273136 W
            Gate Leakage = 0.000106646 W
            Runtime Dynamic = 0.0170995 W

          FP Front End RAT with 1 internal checkpoints:
            Area = 0.025747 mm^2
            Peak Dynamic = 1.25552 W
            Subthreshold Leakage = 0.000877353 W
            Gate Leakage = 5.24626e-05 W
            Runtime Dynamic = 0.00104768 W

          Free List:
            Area = 0.480797 mm^2
            Peak Dynamic = 0.251514 W
            Subthreshold Leakage = 0.00659346 W
            Gate Leakage = 0.000203822 W
            Runtime Dynamic = 0.00162623 W

          FP Free List:
            Area = 0.131231 mm^2
            Peak Dynamic = 0.154797 W
            Subthreshold Leakage = 0.00365632 W
            Gate Leakage = 0.000122342 W
            Runtime Dynamic = 6.27596e-05 W

      Load Store Unit:
        Area = 14.8953 mm^2
        Peak Dynamic = 6.43431 W
        Subthreshold Leakage = 2.53356 W
        Gate Leakage = 0.125582 W
        Runtime Dynamic = 0.0387847 W

          Data Cache:
            Area = 11.9681 mm^2
            Peak Dynamic = 5.56525 W
            Subthreshold Leakage = 2.16076 W
            Gate Leakage = 0.093823 W
            Runtime Dynamic = 0.00769053 W

          LoadQ:
            Area = 0.597754 mm^2
            Peak Dynamic = 0.254064 W
            Subthreshold Leakage = 0.0749804 W
            Gate Leakage = 0.00332956 W
            Runtime Dynamic = 0.00351184 W

          StoreQ:
            Area = 0.597754 mm^2
            Peak Dynamic = 0.254064 W
            Subthreshold Leakage = 0.0749804 W
            Gate Leakage = 0.00332956 W
            Runtime Dynamic = 0.00702368 W

      Memory Management Unit:
        Area = 0.85051 mm^2
        Peak Dynamic = 0.984785 W
        Subthreshold Leakage = 0.281996 W
        Runtime Dynamic = 0.0520144 W

          Itlb:
            Area = 0.104115 mm^2
            Peak Dynamic = 0.0198463 W
            Subthreshold Leakage = 0.0168404 W
            Gate Leakage = 0.000696321 W
            Runtime Dynamic = 0 W

          Dtlb:
            Area = 0.331051 mm^2
            Peak Dynamic = 0.0626126 W
            Subthreshold Leakage = 0.0423145 W
            Gate Leakage = 0.00180917 W
            Runtime Dynamic = 0.000617742 W

      Execution Unit:
        Area = 23.098 mm^2
        Peak Dynamic = 22.2069 W
        Subthreshold Leakage = 5.94234 W
        Runtime Dynamic = 0.814603 W

          Register Files:
            Area = 9.35294 mm^2
            Peak Dynamic = 8.61065 W
            Subthreshold Leakage = 0.183607 W
            Gate Leakage = 0.00649419 W
            Runtime Dynamic = 0.0142333 W

              Integer RF:
                Area = 4.67647 mm^2
                Peak Dynamic = 6.91996 W
                Subthreshold Leakage = 0.0918036 W
                Gate Leakage = 0.00324709 W
                Runtime Dynamic = 0.0135758 W

              Floating Point RF:
                Area = 4.67647 mm^2
                Peak Dynamic = 1.69068 W
                Subthreshold Leakage = 0.0918036 W
                Gate Leakage = 0.00324709 W
                Runtime Dynamic = 0.000657553 W

          Instruction Scheduler:
            Area = 2.5025 mm^2
            Peak Dynamic = 4.84103 W
            Subthreshold Leakage = 0.100503 W
            Gate Leakage = 0.00390898 W
            Runtime Dynamic = 0.0434946 W

              Instruction Window:
                Area = 0.497673 mm^2
                Peak Dynamic = 1.50808 W
                Subthreshold Leakage = 0.0358961 W
                Gate Leakage = 0.00164666 W
                Runtime Dynamic = 0.0144156 W

              FP Instruction Window:
                Area = 0.138043 mm^2
                Peak Dynamic = 0.412321 W
                Subthreshold Leakage = 0.0178333 W
                Gate Leakage = 0.00084265 W
                Runtime Dynamic = 0.000526276 W

              ROB:
                Area = 1.86679 mm^2
                Peak Dynamic = 2.92063 W
                Subthreshold Leakage = 0.0467734 W
                Gate Leakage = 0.00141967 W
                Runtime Dynamic = 0.0285527 W

          Integer ALUs (Count: 6 ):
            Area = 0.672672 mm^2
            Peak Dynamic = 2.72514 W
            Subthreshold Leakage = 1.01603 W
            Gate Leakage = 0.0454759 W
            Runtime Dynamic = 0.124162 W

          Floating Point Units (FPUs) (Count: 2 ):
            Area = 9.71959 mm^2
            Peak Dynamic = 0.88336 W
            Subthreshold Leakage = 3.67022 W
            Gate Leakage = 0.164273 W
            Runtime Dynamic = 0.331088 W

          Complex ALUs (Mul/Div) (Count: 1 ):
            Area = 0.336336 mm^2
            Peak Dynamic = 0.327362 W
            Subthreshold Leakage = 0.508016 W
            Gate Leakage = 0.0227379 W
            Runtime Dynamic = 0.21939 W

          Results Broadcast Bus:
            Area Overhead = 0.0985999 mm^2
            Peak Dynamic = 3.37561 W
            Subthreshold Leakage = 0.241117 W
            Gate Leakage = 0.010792 W
            Runtime Dynamic = 0 W

*****************************************************************************************
Core:
      Area = 61.3493 mm^2
      Peak Dynamic = 44.2386 W
      Subthreshold Leakage = 17.5347 W
      Gate Leakage = 0.837564 W
      Runtime Dynamic = 1.05035 W

      Instruction Fetch Unit:
        Area = 12.8015 mm^2
        Peak Dynamic = 6.36544 W
        Subthreshold Leakage = 2.14624 W
        Gate Leakage = 0.0938309 W
        Runtime Dynamic = 0.0420262 W

          Instruction Cache:
            Area = 3.387 mm^2
            Peak Dynamic = 1.50753 W
            Subthreshold Leakage = 0.653302 W
            Gate Leakage = 0.026836 W
            Runtime Dynamic = 0.00142719 W

          Branch Target Buffer:
            Area = 0.929417 mm^2
            Peak Dynamic = 0.0843569 W
            Subthreshold Leakage = 0.0901849 W
            Gate Leakage = 0.00212441 W
            Runtime Dynamic = 0.000982272 W

          Branch Predictor:
            Area = 0.256492 mm^2
            Peak Dynamic = 0.0739778 W
            Subthreshold Leakage = 0.0552507 W
            Gate Leakage = 0.00144552 W
            Runtime Dynamic = 0.000286296 W

              Global Predictor:
                Area = 0.0856941 mm^2
                Peak Dynamic = 0.0191787 W
                Subthreshold Leakage = 0.0197055 W
                Gate Leakage = 0.000495847 W
                Runtime Dynamic = 8.47812e-05 W

              Local Predictor:
              L1_Local Predictor:
                Area = 0.0483655 mm^2
                Peak Dynamic = 0.0163721 W
                Subthreshold Leakage = 0.0100013 W
                Gate Leakage = 0.000280458 W
                Runtime Dynamic = 7.54815e-05 W

              L2_Local Predictor:
                Area = 0.0253579 mm^2
                Peak Dynamic = 0.00834565 W
                Subthreshold Leakage = 0.0050708 W
                Gate Leakage = 0.000147753 W
                Runtime Dynamic = 3.84792e-05 W

              Chooser:
                Area = 0.0856941 mm^2
                Peak Dynamic = 0.0191787 W
                Subthreshold Leakage = 0.0197055 W
                Gate Leakage = 0.000495847 W
                Runtime Dynamic = 8.47812e-05 W

              RAS:
                Area = 0.0113805 mm^2
                Peak Dynamic = 0.0109026 W
                Subthreshold Leakage = 0.000767647 W
                Gate Leakage = 2.56146e-05 W
                Runtime Dynamic = 2.77312e-06 W

          Instruction Buffer:
            Area = 0.0602122 mm^2
            Peak Dynamic = 1.67657 W
            Subthreshold Leakage = 0.00576253 W
            Gate Leakage = 0.00018516 W
            Runtime Dynamic = 0.00723082 W

          Instruction Decoder:
            Area = 7.75308 mm^2
            Peak Dynamic = 2.66207 W
            Subthreshold Leakage = 1.1189 W
            Gate Leakage = 0.0381395 W
            Runtime Dynamic = 0.0114811 W

      Renaming Unit:
        Area = 1.23784 mm^2
        Peak Dynamic = 8.24718 W
        Subthreshold Leakage = 0.236699 W
        Gate Leakage = 0.0255856 W
        Runtime Dynamic = 0.102343 W

          Int Front End RAT with 1 internal checkpoints:
            Area = 0.184722 mm^2
            Peak Dynamic = 5.14163 W
            Subthreshold Leakage = 0.00273136 W
            Gate Leakage = 0.000106646 W
            Runtime Dynamic = 0.0171321 W

          FP Front End RAT with 1 internal checkpoints:
            Area = 0.025747 mm^2
            Peak Dynamic = 1.25552 W
            Subthreshold Leakage = 0.000877353 W
            Gate Leakage = 5.24626e-05 W
            Runtime Dynamic = 0.00104548 W

          Free List:
            Area = 0.480797 mm^2
            Peak Dynamic = 0.251514 W
            Subthreshold Leakage = 0.00659346 W
            Gate Leakage = 0.000203822 W
            Runtime Dynamic = 0.00162887 W

          FP Free List:
            Area = 0.131231 mm^2
            Peak Dynamic = 0.154797 W
            Subthreshold Leakage = 0.00365632 W
            Gate Leakage = 0.000122342 W
            Runtime Dynamic = 6.26096e-05 W

      Load Store Unit:
        Area = 14.8953 mm^2
        Peak Dynamic = 6.43431 W
        Subthreshold Leakage = 2.53356 W
        Gate Leakage = 0.125582 W
        Runtime Dynamic = 0.0388581 W

          Data Cache:
            Area = 11.9681 mm^2
            Peak Dynamic = 5.56525 W
            Subthreshold Leakage = 2.16076 W
            Gate Leakage = 0.093823 W
            Runtime Dynamic = 0.0076837 W

          LoadQ:
            Area = 0.597754 mm^2
            Peak Dynamic = 0.254064 W
            Subthreshold Leakage = 0.0749804 W
            Gate Leakage = 0.00332956 W
            Runtime Dynamic = 0.00351863 W

          StoreQ:
            Area = 0.597754 mm^2
            Peak Dynamic = 0.254064 W
            Subthreshold Leakage = 0.0749804 W
            Gate Leakage = 0.00332956 W
            Runtime Dynamic = 0.00703727 W

      Memory Management Unit:
        Area = 0.85051 mm^2
        Peak Dynamic = 0.984785 W
        Subthreshold Leakage = 0.281996 W
        Runtime Dynamic = 0.052165 W

          Itlb:
            Area = 0.104115 mm^2
            Peak Dynamic = 0.0198463 W
            Subthreshold Leakage = 0.0168404 W
            Gate Leakage = 0.000696321 W
            Runtime Dynamic = 0 W

          Dtlb:
            Area = 0.331051 mm^2
            Peak Dynamic = 0.0626126 W
            Subthreshold Leakage = 0.0423145 W
            Gate Leakage = 0.00180917 W
            Runtime Dynamic = 0.000618904 W

      Execution Unit:
        Area = 23.098 mm^2
        Peak Dynamic = 22.2069 W
        Subthreshold Leakage = 5.94234 W
        Runtime Dynamic = 0.814956 W

          Register Files:
            Area = 9.35294 mm^2
            Peak Dynamic = 8.61065 W
            Subthreshold Leakage = 0.183607 W
            Gate Leakage = 0.00649419 W
            Runtime Dynamic = 0.0142491 W

              Integer RF:
                Area = 4.67647 mm^2
                Peak Dynamic = 6.91996 W
                Subthreshold Leakage = 0.0918036 W
                Gate Leakage = 0.00324709 W
                Runtime Dynamic = 0.0135881 W

              Floating Point RF:
                Area = 4.67647 mm^2
                Peak Dynamic = 1.69068 W
                Subthreshold Leakage = 0.0918036 W
                Gate Leakage = 0.00324709 W
                Runtime Dynamic = 0.000661103 W

          Instruction Scheduler:
            Area = 2.5025 mm^2
            Peak Dynamic = 4.84103 W
            Subthreshold Leakage = 0.100503 W
            Gate Leakage = 0.00390898 W
            Runtime Dynamic = 0.0435707 W

              Instruction Window:
                Area = 0.497673 mm^2
                Peak Dynamic = 1.50808 W
                Subthreshold Leakage = 0.0358961 W
                Gate Leakage = 0.00164666 W
                Runtime Dynamic = 0.0144436 W

              FP Instruction Window:
                Area = 0.138043 mm^2
                Peak Dynamic = 0.412321 W
                Subthreshold Leakage = 0.0178333 W
                Gate Leakage = 0.00084265 W
                Runtime Dynamic = 0.000528917 W

              ROB:
                Area = 1.86679 mm^2
                Peak Dynamic = 2.92063 W
                Subthreshold Leakage = 0.0467734 W
                Gate Leakage = 0.00141967 W
                Runtime Dynamic = 0.0285982 W

          Integer ALUs (Count: 6 ):
            Area = 0.672672 mm^2
            Peak Dynamic = 2.72514 W
            Subthreshold Leakage = 1.01603 W
            Gate Leakage = 0.0454759 W
            Runtime Dynamic = 0.12417 W

          Floating Point Units (FPUs) (Count: 2 ):
            Area = 9.71959 mm^2
            Peak Dynamic = 0.88336 W
            Subthreshold Leakage = 3.67022 W
            Gate Leakage = 0.164273 W
            Runtime Dynamic = 0.331102 W

          Complex ALUs (Mul/Div) (Count: 1 ):
            Area = 0.336336 mm^2
            Peak Dynamic = 0.327362 W
            Subthreshold Leakage = 0.508016 W
            Gate Leakage = 0.0227379 W
            Runtime Dynamic = 0.21939 W

          Results Broadcast Bus:
            Area Overhead = 0.0985999 mm^2
            Peak Dynamic = 3.37561 W
            Subthreshold Leakage = 0.241117 W
            Gate Leakage = 0.010792 W
            Runtime Dynamic = 0 W

*****************************************************************************************
Core:
      Area = 61.3493 mm^2
      Peak Dynamic = 44.2386 W
      Subthreshold Leakage = 17.5347 W
      Gate Leakage = 0.837564 W
      Runtime Dynamic = 1.05805 W

      Instruction Fetch Unit:
        Area = 12.8015 mm^2
        Peak Dynamic = 6.36544 W
        Subthreshold Leakage = 2.14624 W
        Gate Leakage = 0.0938309 W
        Runtime Dynamic = 0.0426502 W

          Instruction Cache:
            Area = 3.387 mm^2
            Peak Dynamic = 1.50753 W
            Subthreshold Leakage = 0.653302 W
            Gate Leakage = 0.026836 W
            Runtime Dynamic = 0.00143981 W

          Branch Target Buffer:
            Area = 0.929417 mm^2
            Peak Dynamic = 0.0843569 W
            Subthreshold Leakage = 0.0901849 W
            Gate Leakage = 0.00212441 W
            Runtime Dynamic = 0.000984722 W

          Branch Predictor:
            Area = 0.256492 mm^2
            Peak Dynamic = 0.0739778 W
            Subthreshold Leakage = 0.0552507 W
            Gate Leakage = 0.00144552 W
            Runtime Dynamic = 0.000287666 W

              Global Predictor:
                Area = 0.0856941 mm^2
                Peak Dynamic = 0.0191787 W
                Subthreshold Leakage = 0.0197055 W
                Gate Leakage = 0.000495847 W
                Runtime Dynamic = 8.51923e-05 W

              Local Predictor:
              L1_Local Predictor:
                Area = 0.0483655 mm^2
                Peak Dynamic = 0.0163721 W
                Subthreshold Leakage = 0.0100013 W
                Gate Leakage = 0.000280458 W
                Runtime Dynamic = 7.58439e-05 W

              L2_Local Predictor:
                Area = 0.0253579 mm^2
                Peak Dynamic = 0.00834565 W
                Subthreshold Leakage = 0.0050708 W
                Gate Leakage = 0.000147753 W
                Runtime Dynamic = 3.86639e-05 W

              Chooser:
                Area = 0.0856941 mm^2
                Peak Dynamic = 0.0191787 W
                Subthreshold Leakage = 0.0197055 W
                Gate Leakage = 0.000495847 W
                Runtime Dynamic = 8.51923e-05 W

              RAS:
                Area = 0.0113805 mm^2
                Peak Dynamic = 0.0109026 W
                Subthreshold Leakage = 0.000767647 W
                Gate Leakage = 2.56146e-05 W
                Runtime Dynamic = 2.77312e-06 W

          Instruction Buffer:
            Area = 0.0602122 mm^2
            Peak Dynamic = 1.67657 W
            Subthreshold Leakage = 0.00576253 W
            Gate Leakage = 0.00018516 W
            Runtime Dynamic = 0.00724654 W

          Instruction Decoder:
            Area = 7.75308 mm^2
            Peak Dynamic = 2.66207 W
            Subthreshold Leakage = 1.1189 W
            Gate Leakage = 0.0381395 W
            Runtime Dynamic = 0.0115061 W

      Renaming Unit:
        Area = 1.23784 mm^2
        Peak Dynamic = 8.24718 W
        Subthreshold Leakage = 0.236699 W
        Gate Leakage = 0.0255856 W
        Runtime Dynamic = 0.104628 W

          Int Front End RAT with 1 internal checkpoints:
            Area = 0.184722 mm^2
            Peak Dynamic = 5.14163 W
            Subthreshold Leakage = 0.00273136 W
            Gate Leakage = 0.000106646 W
            Runtime Dynamic = 0.0171597 W

          FP Front End RAT with 1 internal checkpoints:
            Area = 0.025747 mm^2
            Peak Dynamic = 1.25552 W
            Subthreshold Leakage = 0.000877353 W
            Gate Leakage = 5.24626e-05 W
            Runtime Dynamic = 0.00103375 W

          Free List:
            Area = 0.480797 mm^2
            Peak Dynamic = 0.251514 W
            Subthreshold Leakage = 0.00659346 W
            Gate Leakage = 0.000203822 W
            Runtime Dynamic = 0.00163161 W

          FP Free List:
            Area = 0.131231 mm^2
            Peak Dynamic = 0.154797 W
            Subthreshold Leakage = 0.00365632 W
            Gate Leakage = 0.000122342 W
            Runtime Dynamic = 6.1911e-05 W

      Load Store Unit:
        Area = 14.8953 mm^2
        Peak Dynamic = 6.43431 W
        Subthreshold Leakage = 2.53356 W
        Gate Leakage = 0.125582 W
        Runtime Dynamic = 0.0395104 W

          Data Cache:
            Area = 11.9681 mm^2
            Peak Dynamic = 5.56525 W
            Subthreshold Leakage = 2.16076 W
            Gate Leakage = 0.093823 W
            Runtime Dynamic = 0.00774367 W

          LoadQ:
            Area = 0.597754 mm^2
            Peak Dynamic = 0.254064 W
            Subthreshold Leakage = 0.0749804 W
            Gate Leakage = 0.00332956 W
            Runtime Dynamic = 0.00352711 W

          StoreQ:
            Area = 0.597754 mm^2
            Peak Dynamic = 0.254064 W
            Subthreshold Leakage = 0.0749804 W
            Gate Leakage = 0.00332956 W
            Runtime Dynamic = 0.00705422 W

      Memory Management Unit:
        Area = 0.85051 mm^2
        Peak Dynamic = 0.984785 W
        Subthreshold Leakage = 0.281996 W
        Runtime Dynamic = 0.0535849 W

          Itlb:
            Area = 0.104115 mm^2
            Peak Dynamic = 0.0198463 W
            Subthreshold Leakage = 0.0168404 W
            Gate Leakage = 0.000696321 W
            Runtime Dynamic = 0 W

          Dtlb:
            Area = 0.331051 mm^2
            Peak Dynamic = 0.0626126 W
            Subthreshold Leakage = 0.0423145 W
            Gate Leakage = 0.00180917 W
            Runtime Dynamic = 0.000621409 W

      Execution Unit:
        Area = 23.098 mm^2
        Peak Dynamic = 22.2069 W
        Subthreshold Leakage = 5.94234 W
        Runtime Dynamic = 0.817678 W

          Register Files:
            Area = 9.35294 mm^2
            Peak Dynamic = 8.61065 W
            Subthreshold Leakage = 0.183607 W
            Gate Leakage = 0.00649419 W
            Runtime Dynamic = 0.0142727 W

              Integer RF:
                Area = 4.67647 mm^2
                Peak Dynamic = 6.91996 W
                Subthreshold Leakage = 0.0918036 W
                Gate Leakage = 0.00324709 W
                Runtime Dynamic = 0.0136233 W

              Floating Point RF:
                Area = 4.67647 mm^2
                Peak Dynamic = 1.69068 W
                Subthreshold Leakage = 0.0918036 W
                Gate Leakage = 0.00324709 W
                Runtime Dynamic = 0.000649521 W

          Instruction Scheduler:
            Area = 2.5025 mm^2
            Peak Dynamic = 4.84103 W
            Subthreshold Leakage = 0.100503 W
            Gate Leakage = 0.00390898 W
            Runtime Dynamic = 0.0439928 W

              Instruction Window:
                Area = 0.497673 mm^2
                Peak Dynamic = 1.50808 W
                Subthreshold Leakage = 0.0358961 W
                Gate Leakage = 0.00164666 W
                Runtime Dynamic = 0.0146257 W

              FP Instruction Window:
                Area = 0.138043 mm^2
                Peak Dynamic = 0.412321 W
                Subthreshold Leakage = 0.0178333 W
                Gate Leakage = 0.00084265 W
                Runtime Dynamic = 0.000520764 W

              ROB:
                Area = 1.86679 mm^2
                Peak Dynamic = 2.92063 W
                Subthreshold Leakage = 0.0467734 W
                Gate Leakage = 0.00141967 W
                Runtime Dynamic = 0.0288463 W

          Integer ALUs (Count: 6 ):
            Area = 0.672672 mm^2
            Peak Dynamic = 2.72514 W
            Subthreshold Leakage = 1.01603 W
            Gate Leakage = 0.0454759 W
            Runtime Dynamic = 0.124207 W

          Floating Point Units (FPUs) (Count: 2 ):
            Area = 9.71959 mm^2
            Peak Dynamic = 0.88336 W
            Subthreshold Leakage = 3.67022 W
            Gate Leakage = 0.164273 W
            Runtime Dynamic = 0.331074 W

          Complex ALUs (Mul/Div) (Count: 1 ):
            Area = 0.336336 mm^2
            Peak Dynamic = 0.327362 W
            Subthreshold Leakage = 0.508016 W
            Gate Leakage = 0.0227379 W
            Runtime Dynamic = 0.21939 W

          Results Broadcast Bus:
            Area Overhead = 0.0985999 mm^2
            Peak Dynamic = 3.37561 W
            Subthreshold Leakage = 0.241117 W
            Gate Leakage = 0.010792 W
            Runtime Dynamic = 0 W

*****************************************************************************************
Core:
      Area = 61.3493 mm^2
      Peak Dynamic = 44.2386 W
      Subthreshold Leakage = 17.5347 W
      Gate Leakage = 0.837564 W
      Runtime Dynamic = 1.05817 W

      Instruction Fetch Unit:
        Area = 12.8015 mm^2
        Peak Dynamic = 6.36544 W
        Subthreshold Leakage = 2.14624 W
        Gate Leakage = 0.0938309 W
        Runtime Dynamic = 0.0426677 W

          Instruction Cache:
            Area = 3.387 mm^2
            Peak Dynamic = 1.50753 W
            Subthreshold Leakage = 0.653302 W
            Gate Leakage = 0.026836 W
            Runtime Dynamic = 0.00142683 W

          Branch Target Buffer:
            Area = 0.929417 mm^2
            Peak Dynamic = 0.0843569 W
            Subthreshold Leakage = 0.0901849 W
            Gate Leakage = 0.00212441 W
            Runtime Dynamic = 0.000984163 W

          Branch Predictor:
            Area = 0.256492 mm^2
            Peak Dynamic = 0.0739778 W
            Subthreshold Leakage = 0.0552507 W
            Gate Leakage = 0.00144552 W
            Runtime Dynamic = 0.000287488 W

              Global Predictor:
                Area = 0.0856941 mm^2
                Peak Dynamic = 0.0191787 W
                Subthreshold Leakage = 0.0197055 W
                Gate Leakage = 0.000495847 W
                Runtime Dynamic = 8.51357e-05 W

              Local Predictor:
              L1_Local Predictor:
                Area = 0.0483655 mm^2
                Peak Dynamic = 0.0163721 W
                Subthreshold Leakage = 0.0100013 W
                Gate Leakage = 0.000280458 W
                Runtime Dynamic = 7.58015e-05 W

              L2_Local Predictor:
                Area = 0.0253579 mm^2
                Peak Dynamic = 0.00834565 W
                Subthreshold Leakage = 0.0050708 W
                Gate Leakage = 0.000147753 W
                Runtime Dynamic = 3.86423e-05 W

              Chooser:
                Area = 0.0856941 mm^2
                Peak Dynamic = 0.0191787 W
                Subthreshold Leakage = 0.0197055 W
                Gate Leakage = 0.000495847 W
                Runtime Dynamic = 8.51357e-05 W

              RAS:
                Area = 0.0113805 mm^2
                Peak Dynamic = 0.0109026 W
                Subthreshold Leakage = 0.000767647 W
                Gate Leakage = 2.56146e-05 W
                Runtime Dynamic = 2.77312e-06 W

          Instruction Buffer:
            Area = 0.0602122 mm^2
            Peak Dynamic = 1.67657 W
            Subthreshold Leakage = 0.00576253 W
            Gate Leakage = 0.00018516 W
            Runtime Dynamic = 0.00725438 W

          Instruction Decoder:
            Area = 7.75308 mm^2
            Peak Dynamic = 2.66207 W
            Subthreshold Leakage = 1.1189 W
            Gate Leakage = 0.0381395 W
            Runtime Dynamic = 0.0115186 W

      Renaming Unit:
        Area = 1.23784 mm^2
        Peak Dynamic = 8.24718 W
        Subthreshold Leakage = 0.236699 W
        Gate Leakage = 0.0255856 W
        Runtime Dynamic = 0.104685 W

          Int Front End RAT with 1 internal checkpoints:
            Area = 0.184722 mm^2
            Peak Dynamic = 5.14163 W
            Subthreshold Leakage = 0.00273136 W
            Gate Leakage = 0.000106646 W
            Runtime Dynamic = 0.0171671 W

          FP Front End RAT with 1 internal checkpoints:
            Area = 0.025747 mm^2
            Peak Dynamic = 1.25552 W
            Subthreshold Leakage = 0.000877353 W
            Gate Leakage = 5.24626e-05 W
            Runtime Dynamic = 0.00103842 W

          Free List:
            Area = 0.480797 mm^2
            Peak Dynamic = 0.251514 W
            Subthreshold Leakage = 0.00659346 W
            Gate Leakage = 0.000203822 W
            Runtime Dynamic = 0.00163233 W

          FP Free List:
            Area = 0.131231 mm^2
            Peak Dynamic = 0.154797 W
            Subthreshold Leakage = 0.00365632 W
            Gate Leakage = 0.000122342 W
            Runtime Dynamic = 6.21929e-05 W

      Load Store Unit:
        Area = 14.8953 mm^2
        Peak Dynamic = 6.43431 W
        Subthreshold Leakage = 2.53356 W
        Gate Leakage = 0.125582 W
        Runtime Dynamic = 0.0394948 W

          Data Cache:
            Area = 11.9681 mm^2
            Peak Dynamic = 5.56525 W
            Subthreshold Leakage = 2.16076 W
            Gate Leakage = 0.093823 W
            Runtime Dynamic = 0.00770252 W

          LoadQ:
            Area = 0.597754 mm^2
            Peak Dynamic = 0.254064 W
            Subthreshold Leakage = 0.0749804 W
            Gate Leakage = 0.00332956 W
            Runtime Dynamic = 0.00353203 W

          StoreQ:
            Area = 0.597754 mm^2
            Peak Dynamic = 0.254064 W
            Subthreshold Leakage = 0.0749804 W
            Gate Leakage = 0.00332956 W
            Runtime Dynamic = 0.00706406 W

      Memory Management Unit:
        Area = 0.85051 mm^2
        Peak Dynamic = 0.984785 W
        Subthreshold Leakage = 0.281996 W
        Runtime Dynamic = 0.0536117 W

          Itlb:
            Area = 0.104115 mm^2
            Peak Dynamic = 0.0198463 W
            Subthreshold Leakage = 0.0168404 W
            Gate Leakage = 0.000696321 W
            Runtime Dynamic = 0 W

          Dtlb:
            Area = 0.331051 mm^2
            Peak Dynamic = 0.0626126 W
            Subthreshold Leakage = 0.0423145 W
            Gate Leakage = 0.00180917 W
            Runtime Dynamic = 0.000621093 W

      Execution Unit:
        Area = 23.098 mm^2
        Peak Dynamic = 22.2069 W
        Subthreshold Leakage = 5.94234 W
        Runtime Dynamic = 0.817712 W

          Register Files:
            Area = 9.35294 mm^2
            Peak Dynamic = 8.61065 W
            Subthreshold Leakage = 0.183607 W
            Gate Leakage = 0.00649419 W
            Runtime Dynamic = 0.0142861 W

              Integer RF:
                Area = 4.67647 mm^2
                Peak Dynamic = 6.91996 W
                Subthreshold Leakage = 0.0918036 W
                Gate Leakage = 0.00324709 W
                Runtime Dynamic = 0.0136313 W

              Floating Point RF:
                Area = 4.67647 mm^2
                Peak Dynamic = 1.69068 W
                Subthreshold Leakage = 0.0918036 W
                Gate Leakage = 0.00324709 W
                Runtime Dynamic = 0.000654836 W

          Instruction Scheduler:
            Area = 2.5025 mm^2
            Peak Dynamic = 4.84103 W
            Subthreshold Leakage = 0.100503 W
            Gate Leakage = 0.00390898 W
            Runtime Dynamic = 0.0439411 W

              Instruction Window:
                Area = 0.497673 mm^2
                Peak Dynamic = 1.50808 W
                Subthreshold Leakage = 0.0358961 W
                Gate Leakage = 0.00164666 W
                Runtime Dynamic = 0.0146116 W

              FP Instruction Window:
                Area = 0.138043 mm^2
                Peak Dynamic = 0.412321 W
                Subthreshold Leakage = 0.0178333 W
                Gate Leakage = 0.00084265 W
                Runtime Dynamic = 0.00052306 W

              ROB:
                Area = 1.86679 mm^2
                Peak Dynamic = 2.92063 W
                Subthreshold Leakage = 0.0467734 W
                Gate Leakage = 0.00141967 W
                Runtime Dynamic = 0.0288064 W

          Integer ALUs (Count: 6 ):
            Area = 0.672672 mm^2
            Peak Dynamic = 2.72514 W
            Subthreshold Leakage = 1.01603 W
            Gate Leakage = 0.0454759 W
            Runtime Dynamic = 0.124224 W

          Floating Point Units (FPUs) (Count: 2 ):
            Area = 9.71959 mm^2
            Peak Dynamic = 0.88336 W
            Subthreshold Leakage = 3.67022 W
            Gate Leakage = 0.164273 W
            Runtime Dynamic = 0.331086 W

          Complex ALUs (Mul/Div) (Count: 1 ):
            Area = 0.336336 mm^2
            Peak Dynamic = 0.327362 W
            Subthreshold Leakage = 0.508016 W
            Gate Leakage = 0.0227379 W
            Runtime Dynamic = 0.21939 W

          Results Broadcast Bus:
            Area Overhead = 0.0985999 mm^2
            Peak Dynamic = 3.37561 W
            Subthreshold Leakage = 0.241117 W
            Gate Leakage = 0.010792 W
            Runtime Dynamic = 0 W

*****************************************************************************************
Core:
      Area = 61.3493 mm^2
      Peak Dynamic = 44.2386 W
      Subthreshold Leakage = 17.5347 W
      Gate Leakage = 0.837564 W
      Runtime Dynamic = 1.05979 W

      Instruction Fetch Unit:
        Area = 12.8015 mm^2
        Peak Dynamic = 6.36544 W
        Subthreshold Leakage = 2.14624 W
        Gate Leakage = 0.0938309 W
        Runtime Dynamic = 0.0427363 W

          Instruction Cache:
            Area = 3.387 mm^2
            Peak Dynamic = 1.50753 W
            Subthreshold Leakage = 0.653302 W
            Gate Leakage = 0.026836 W
            Runtime Dynamic = 0.00141312 W

          Branch Target Buffer:
            Area = 0.929417 mm^2
            Peak Dynamic = 0.0843569 W
            Subthreshold Leakage = 0.0901849 W
            Gate Leakage = 0.00212441 W
            Runtime Dynamic = 0.000981649 W

          Branch Predictor:
            Area = 0.256492 mm^2
            Peak Dynamic = 0.0739778 W
            Subthreshold Leakage = 0.0552507 W
            Gate Leakage = 0.00144552 W
            Runtime Dynamic = 0.000286024 W

              Global Predictor:
                Area = 0.0856941 mm^2
                Peak Dynamic = 0.0191787 W
                Subthreshold Leakage = 0.0197055 W
                Gate Leakage = 0.000495847 W
                Runtime Dynamic = 8.47017e-05 W

              Local Predictor:
              L1_Local Predictor:
                Area = 0.0483655 mm^2
                Peak Dynamic = 0.0163721 W
                Subthreshold Leakage = 0.0100013 W
                Gate Leakage = 0.000280458 W
                Runtime Dynamic = 7.54064e-05 W

              L2_Local Predictor:
                Area = 0.0253579 mm^2
                Peak Dynamic = 0.00834565 W
                Subthreshold Leakage = 0.0050708 W
                Gate Leakage = 0.000147753 W
                Runtime Dynamic = 3.84409e-05 W

              Chooser:
                Area = 0.0856941 mm^2
                Peak Dynamic = 0.0191787 W
                Subthreshold Leakage = 0.0197055 W
                Gate Leakage = 0.000495847 W
                Runtime Dynamic = 8.47017e-05 W

              RAS:
                Area = 0.0113805 mm^2
                Peak Dynamic = 0.0109026 W
                Subthreshold Leakage = 0.000767647 W
                Gate Leakage = 2.56146e-05 W
                Runtime Dynamic = 2.77312e-06 W

          Instruction Buffer:
            Area = 0.0602122 mm^2
            Peak Dynamic = 1.67657 W
            Subthreshold Leakage = 0.00576253 W
            Gate Leakage = 0.00018516 W
            Runtime Dynamic = 0.00722594 W

          Instruction Decoder:
            Area = 7.75308 mm^2
            Peak Dynamic = 2.66207 W
            Subthreshold Leakage = 1.1189 W
            Gate Leakage = 0.0381395 W
            Runtime Dynamic = 0.0114734 W

      Renaming Unit:
        Area = 1.23784 mm^2
        Peak Dynamic = 8.24718 W
        Subthreshold Leakage = 0.236699 W
        Gate Leakage = 0.0255856 W
        Runtime Dynamic = 0.105268 W

          Int Front End RAT with 1 internal checkpoints:
            Area = 0.184722 mm^2
            Peak Dynamic = 5.14163 W
            Subthreshold Leakage = 0.00273136 W
            Gate Leakage = 0.000106646 W
            Runtime Dynamic = 0.0171208 W

          FP Front End RAT with 1 internal checkpoints:
            Area = 0.025747 mm^2
            Peak Dynamic = 1.25552 W
            Subthreshold Leakage = 0.000877353 W
            Gate Leakage = 5.24626e-05 W
            Runtime Dynamic = 0.00103215 W

          Free List:
            Area = 0.480797 mm^2
            Peak Dynamic = 0.251514 W
            Subthreshold Leakage = 0.00659346 W
            Gate Leakage = 0.000203822 W
            Runtime Dynamic = 0.00162806 W

          FP Free List:
            Area = 0.131231 mm^2
            Peak Dynamic = 0.154797 W
            Subthreshold Leakage = 0.00365632 W
            Gate Leakage = 0.000122342 W
            Runtime Dynamic = 6.18229e-05 W

      Load Store Unit:
        Area = 14.8953 mm^2
        Peak Dynamic = 6.43431 W
        Subthreshold Leakage = 2.53356 W
        Gate Leakage = 0.125582 W
        Runtime Dynamic = 0.0396908 W

          Data Cache:
            Area = 11.9681 mm^2
            Peak Dynamic = 5.56525 W
            Subthreshold Leakage = 2.16076 W
            Gate Leakage = 0.093823 W
            Runtime Dynamic = 0.00776417 W

          LoadQ:
            Area = 0.597754 mm^2
            Peak Dynamic = 0.254064 W
            Subthreshold Leakage = 0.0749804 W
            Gate Leakage = 0.00332956 W
            Runtime Dynamic = 0.00352349 W

          StoreQ:
            Area = 0.597754 mm^2
            Peak Dynamic = 0.254064 W
            Subthreshold Leakage = 0.0749804 W
            Gate Leakage = 0.00332956 W
            Runtime Dynamic = 0.00704697 W

      Memory Management Unit:
        Area = 0.85051 mm^2
        Peak Dynamic = 0.984785 W
        Subthreshold Leakage = 0.281996 W
        Runtime Dynamic = 0.0540108 W

          Itlb:
            Area = 0.104115 mm^2
            Peak Dynamic = 0.0198463 W
            Subthreshold Leakage = 0.0168404 W
            Gate Leakage = 0.000696321 W
            Runtime Dynamic = 0 W

          Dtlb:
            Area = 0.331051 mm^2
            Peak Dynamic = 0.0626126 W
            Subthreshold Leakage = 0.0423145 W
            Gate Leakage = 0.00180917 W
            Runtime Dynamic = 0.000620296 W

      Execution Unit:
        Area = 23.098 mm^2
        Peak Dynamic = 22.2069 W
        Subthreshold Leakage = 5.94234 W
        Runtime Dynamic = 0.818088 W

          Register Files:
            Area = 9.35294 mm^2
            Peak Dynamic = 8.61065 W
            Subthreshold Leakage = 0.183607 W
            Gate Leakage = 0.00649419 W
            Runtime Dynamic = 0.0142343 W

              Integer RF:
                Area = 4.67647 mm^2
                Peak Dynamic = 6.91996 W
                Subthreshold Leakage = 0.0918036 W
                Gate Leakage = 0.00324709 W
                Runtime Dynamic = 0.0135899 W

              Floating Point RF:
                Area = 4.67647 mm^2
                Peak Dynamic = 1.69068 W
                Subthreshold Leakage = 0.0918036 W
                Gate Leakage = 0.00324709 W
                Runtime Dynamic = 0.000644392 W

          Instruction Scheduler:
            Area = 2.5025 mm^2
            Peak Dynamic = 4.84103 W
            Subthreshold Leakage = 0.100503 W
            Gate Leakage = 0.00390898 W
            Runtime Dynamic = 0.0438124 W

              Instruction Window:
                Area = 0.497673 mm^2
                Peak Dynamic = 1.50808 W
                Subthreshold Leakage = 0.0358961 W
                Gate Leakage = 0.00164666 W
                Runtime Dynamic = 0.0145745 W

              FP Instruction Window:
                Area = 0.138043 mm^2
                Peak Dynamic = 0.412321 W
                Subthreshold Leakage = 0.0178333 W
                Gate Leakage = 0.00084265 W
                Runtime Dynamic = 0.000518586 W

              ROB:
                Area = 1.86679 mm^2
                Peak Dynamic = 2.92063 W
                Subthreshold Leakage = 0.0467734 W
                Gate Leakage = 0.00141967 W
                Runtime Dynamic = 0.0287194 W

          Integer ALUs (Count: 6 ):
            Area = 0.672672 mm^2
            Peak Dynamic = 2.72514 W
            Subthreshold Leakage = 1.01603 W
            Gate Leakage = 0.0454759 W
            Runtime Dynamic = 0.124171 W

          Floating Point Units (FPUs) (Count: 2 ):
            Area = 9.71959 mm^2
            Peak Dynamic = 0.88336 W
            Subthreshold Leakage = 3.67022 W
            Gate Leakage = 0.164273 W
            Runtime Dynamic = 0.331055 W

          Complex ALUs (Mul/Div) (Count: 1 ):
            Area = 0.336336 mm^2
            Peak Dynamic = 0.327362 W
            Subthreshold Leakage = 0.508016 W
            Gate Leakage = 0.0227379 W
            Runtime Dynamic = 0.21939 W

          Results Broadcast Bus:
            Area Overhead = 0.0985999 mm^2
            Peak Dynamic = 3.37561 W
            Subthreshold Leakage = 0.241117 W
            Gate Leakage = 0.010792 W
            Runtime Dynamic = 0 W

*****************************************************************************************
Core:
      Area = 61.3493 mm^2
      Peak Dynamic = 44.2386 W
      Subthreshold Leakage = 17.5347 W
      Gate Leakage = 0.837564 W
      Runtime Dynamic = 1.05836 W

      Instruction Fetch Unit:
        Area = 12.8015 mm^2
        Peak Dynamic = 6.36544 W
        Subthreshold Leakage = 2.14624 W
        Gate Leakage = 0.0938309 W
        Runtime Dynamic = 0.0426945 W

          Instruction Cache:
            Area = 3.387 mm^2
            Peak Dynamic = 1.50753 W
            Subthreshold Leakage = 0.653302 W
            Gate Leakage = 0.026836 W
            Runtime Dynamic = 0.00142914 W

          Branch Target Buffer:
            Area = 0.929417 mm^2
            Peak Dynamic = 0.0843569 W
            Subthreshold Leakage = 0.0901849 W
            Gate Leakage = 0.00212441 W
            Runtime Dynamic = 0.000985162 W

          Branch Predictor:
            Area = 0.256492 mm^2
            Peak Dynamic = 0.0739778 W
            Subthreshold Leakage = 0.0552507 W
            Gate Leakage = 0.00144552 W
            Runtime Dynamic = 0.000288306 W

              Global Predictor:
                Area = 0.0856941 mm^2
                Peak Dynamic = 0.0191787 W
                Subthreshold Leakage = 0.0197055 W
                Gate Leakage = 0.000495847 W
                Runtime Dynamic = 8.53868e-05 W

              Local Predictor:
              L1_Local Predictor:
                Area = 0.0483655 mm^2
                Peak Dynamic = 0.0163721 W
                Subthreshold Leakage = 0.0100013 W
                Gate Leakage = 0.000280458 W
                Runtime Dynamic = 7.60105e-05 W

              L2_Local Predictor:
                Area = 0.0253579 mm^2
                Peak Dynamic = 0.00834565 W
                Subthreshold Leakage = 0.0050708 W
                Gate Leakage = 0.000147753 W
                Runtime Dynamic = 3.87488e-05 W

              Chooser:
                Area = 0.0856941 mm^2
                Peak Dynamic = 0.0191787 W
                Subthreshold Leakage = 0.0197055 W
                Gate Leakage = 0.000495847 W
                Runtime Dynamic = 8.53868e-05 W

              RAS:
                Area = 0.0113805 mm^2
                Peak Dynamic = 0.0109026 W
                Subthreshold Leakage = 0.000767647 W
                Gate Leakage = 2.56146e-05 W
                Runtime Dynamic = 2.77312e-06 W

          Instruction Buffer:
            Area = 0.0602122 mm^2
            Peak Dynamic = 1.67657 W
            Subthreshold Leakage = 0.00576253 W
            Gate Leakage = 0.00018516 W
            Runtime Dynamic = 0.00726789 W

          Instruction Decoder:
            Area = 7.75308 mm^2
            Peak Dynamic = 2.66207 W
            Subthreshold Leakage = 1.1189 W
            Gate Leakage = 0.0381395 W
            Runtime Dynamic = 0.01154 W

      Renaming Unit:
        Area = 1.23784 mm^2
        Peak Dynamic = 8.24718 W
        Subthreshold Leakage = 0.236699 W
        Gate Leakage = 0.0255856 W
        Runtime Dynamic = 0.104687 W

          Int Front End RAT with 1 internal checkpoints:
            Area = 0.184722 mm^2
            Peak Dynamic = 5.14163 W
            Subthreshold Leakage = 0.00273136 W
            Gate Leakage = 0.000106646 W
            Runtime Dynamic = 0.0172154 W

          FP Front End RAT with 1 internal checkpoints:
            Area = 0.025747 mm^2
            Peak Dynamic = 1.25552 W
            Subthreshold Leakage = 0.000877353 W
            Gate Leakage = 5.24626e-05 W
            Runtime Dynamic = 0.0010373 W

          Free List:
            Area = 0.480797 mm^2
            Peak Dynamic = 0.251514 W
            Subthreshold Leakage = 0.00659346 W
            Gate Leakage = 0.000203822 W
            Runtime Dynamic = 0.00163685 W

          FP Free List:
            Area = 0.131231 mm^2
            Peak Dynamic = 0.154797 W
            Subthreshold Leakage = 0.00365632 W
            Gate Leakage = 0.000122342 W
            Runtime Dynamic = 6.21225e-05 W

      Load Store Unit:
        Area = 14.8953 mm^2
        Peak Dynamic = 6.43431 W
        Subthreshold Leakage = 2.53356 W
        Gate Leakage = 0.125582 W
        Runtime Dynamic = 0.0395459 W

          Data Cache:
            Area = 11.9681 mm^2
            Peak Dynamic = 5.56525 W
            Subthreshold Leakage = 2.16076 W
            Gate Leakage = 0.093823 W
            Runtime Dynamic = 0.00774549 W

          LoadQ:
            Area = 0.597754 mm^2
            Peak Dynamic = 0.254064 W
            Subthreshold Leakage = 0.0749804 W
            Gate Leakage = 0.00332956 W
            Runtime Dynamic = 0.00353882 W

          StoreQ:
            Area = 0.597754 mm^2
            Peak Dynamic = 0.254064 W
            Subthreshold Leakage = 0.0749804 W
            Gate Leakage = 0.00332956 W
            Runtime Dynamic = 0.00707765 W

      Memory Management Unit:
        Area = 0.85051 mm^2
        Peak Dynamic = 0.984785 W
        Subthreshold Leakage = 0.281996 W
        Runtime Dynamic = 0.0535817 W

          Itlb:
            Area = 0.104115 mm^2
            Peak Dynamic = 0.0198463 W
            Subthreshold Leakage = 0.0168404 W
            Gate Leakage = 0.000696321 W
            Runtime Dynamic = 0 W

          Dtlb:
            Area = 0.331051 mm^2
            Peak Dynamic = 0.0626126 W
            Subthreshold Leakage = 0.0423145 W
            Gate Leakage = 0.00180917 W
            Runtime Dynamic = 0.000621753 W

      Execution Unit:
        Area = 23.098 mm^2
        Peak Dynamic = 22.2069 W
        Subthreshold Leakage = 5.94234 W
        Runtime Dynamic = 0.817854 W

          Register Files:
            Area = 9.35294 mm^2
            Peak Dynamic = 8.61065 W
            Subthreshold Leakage = 0.183607 W
            Gate Leakage = 0.00649419 W
            Runtime Dynamic = 0.0143044 W

              Integer RF:
                Area = 4.67647 mm^2
                Peak Dynamic = 6.91996 W
                Subthreshold Leakage = 0.0918036 W
                Gate Leakage = 0.00324709 W
                Runtime Dynamic = 0.0136507 W

              Floating Point RF:
                Area = 4.67647 mm^2
                Peak Dynamic = 1.69068 W
                Subthreshold Leakage = 0.0918036 W
                Gate Leakage = 0.00324709 W
                Runtime Dynamic = 0.000653717 W

          Instruction Scheduler:
            Area = 2.5025 mm^2
            Peak Dynamic = 4.84103 W
            Subthreshold Leakage = 0.100503 W
            Gate Leakage = 0.00390898 W
            Runtime Dynamic = 0.0440958 W

              Instruction Window:
                Area = 0.497673 mm^2
                Peak Dynamic = 1.50808 W
                Subthreshold Leakage = 0.0358961 W
                Gate Leakage = 0.00164666 W
                Runtime Dynamic = 0.0146662 W

              FP Instruction Window:
                Area = 0.138043 mm^2
                Peak Dynamic = 0.412321 W
                Subthreshold Leakage = 0.0178333 W
                Gate Leakage = 0.00084265 W
                Runtime Dynamic = 0.00052263 W

              ROB:
                Area = 1.86679 mm^2
                Peak Dynamic = 2.92063 W
                Subthreshold Leakage = 0.0467734 W
                Gate Leakage = 0.00141967 W
                Runtime Dynamic = 0.028907 W

          Integer ALUs (Count: 6 ):
            Area = 0.672672 mm^2
            Peak Dynamic = 2.72514 W
            Subthreshold Leakage = 1.01603 W
            Gate Leakage = 0.0454759 W
            Runtime Dynamic = 0.124249 W

          Floating Point Units (FPUs) (Count: 2 ):
            Area = 9.71959 mm^2
            Peak Dynamic = 0.88336 W
            Subthreshold Leakage = 3.67022 W
            Gate Leakage = 0.164273 W
            Runtime Dynamic = 0.331078 W

          Complex ALUs (Mul/Div) (Count: 1 ):
            Area = 0.336336 mm^2
            Peak Dynamic = 0.327362 W
            Subthreshold Leakage = 0.508016 W
            Gate Leakage = 0.0227379 W
            Runtime Dynamic = 0.21939 W

          Results Broadcast Bus:
            Area Overhead = 0.0985999 mm^2
            Peak Dynamic = 3.37561 W
            Subthreshold Leakage = 0.241117 W
            Gate Leakage = 0.010792 W
            Runtime Dynamic = 0 W

*****************************************************************************************
Core:
      Area = 61.3493 mm^2
      Peak Dynamic = 44.2386 W
      Subthreshold Leakage = 17.5347 W
      Gate Leakage = 0.837564 W
      Runtime Dynamic = 1.0581 W

      Instruction Fetch Unit:
        Area = 12.8015 mm^2
        Peak Dynamic = 6.36544 W
        Subthreshold Leakage = 2.14624 W
        Gate Leakage = 0.0938309 W
        Runtime Dynamic = 0.0426615 W

          Instruction Cache:
            Area = 3.387 mm^2
            Peak Dynamic = 1.50753 W
            Subthreshold Leakage = 0.653302 W
            Gate Leakage = 0.026836 W
            Runtime Dynamic = 0.0014241 W

          Branch Target Buffer:
            Area = 0.929417 mm^2
            Peak Dynamic = 0.0843569 W
            Subthreshold Leakage = 0.0901849 W
            Gate Leakage = 0.00212441 W
            Runtime Dynamic = 0.000984195 W

          Branch Predictor:
            Area = 0.256492 mm^2
            Peak Dynamic = 0.0739778 W
            Subthreshold Leakage = 0.0552507 W
            Gate Leakage = 0.00144552 W
            Runtime Dynamic = 0.00028777 W

              Global Predictor:
                Area = 0.0856941 mm^2
                Peak Dynamic = 0.0191787 W
                Subthreshold Leakage = 0.0197055 W
                Gate Leakage = 0.000495847 W
                Runtime Dynamic = 8.52229e-05 W

              Local Predictor:
              L1_Local Predictor:
                Area = 0.0483655 mm^2
                Peak Dynamic = 0.0163721 W
                Subthreshold Leakage = 0.0100013 W
                Gate Leakage = 0.000280458 W
                Runtime Dynamic = 7.58727e-05 W

              L2_Local Predictor:
                Area = 0.0253579 mm^2
                Peak Dynamic = 0.00834565 W
                Subthreshold Leakage = 0.0050708 W
                Gate Leakage = 0.000147753 W
                Runtime Dynamic = 3.86786e-05 W

              Chooser:
                Area = 0.0856941 mm^2
                Peak Dynamic = 0.0191787 W
                Subthreshold Leakage = 0.0197055 W
                Gate Leakage = 0.000495847 W
                Runtime Dynamic = 8.52229e-05 W

              RAS:
                Area = 0.0113805 mm^2
                Peak Dynamic = 0.0109026 W
                Subthreshold Leakage = 0.000767647 W
                Gate Leakage = 2.56146e-05 W
                Runtime Dynamic = 2.77312e-06 W

          Instruction Buffer:
            Area = 0.0602122 mm^2
            Peak Dynamic = 1.67657 W
            Subthreshold Leakage = 0.00576253 W
            Gate Leakage = 0.00018516 W
            Runtime Dynamic = 0.00725324 W

          Instruction Decoder:
            Area = 7.75308 mm^2
            Peak Dynamic = 2.66207 W
            Subthreshold Leakage = 1.1189 W
            Gate Leakage = 0.0381395 W
            Runtime Dynamic = 0.0115167 W

      Renaming Unit:
        Area = 1.23784 mm^2
        Peak Dynamic = 8.24718 W
        Subthreshold Leakage = 0.236699 W
        Gate Leakage = 0.0255856 W
        Runtime Dynamic = 0.104683 W

          Int Front End RAT with 1 internal checkpoints:
            Area = 0.184722 mm^2
            Peak Dynamic = 5.14163 W
            Subthreshold Leakage = 0.00273136 W
[...]
            Runtime Dynamic = 0.0504712 W

              Integer RF:
                Area = 4.67647 mm^2
                Peak Dynamic = 6.91996 W
                Subthreshold Leakage = 0.0918036 W
                Gate Leakage = 0.00324709 W
                Runtime Dynamic = 0.0367065 W

              Floating Point RF:
                Area = 4.67647 mm^2
                Peak Dynamic = 1.69068 W
                Subthreshold Leakage = 0.0918036 W
                Gate Leakage = 0.00324709 W
                Runtime Dynamic = 0.0137648 W

          Instruction Scheduler:
            Area = 2.5025 mm^2
            Peak Dynamic = 4.84103 W
            Subthreshold Leakage = 0.100503 W
            Gate Leakage = 0.00390898 W
            Runtime Dynamic = 0.118278 W

              Instruction Window:
                Area = 0.497673 mm^2
                Peak Dynamic = 1.50808 W
                Subthreshold Leakage = 0.0358961 W
                Gate Leakage = 0.00164666 W
                Runtime Dynamic = 0.0313633 W

              FP Instruction Window:
                Area = 0.138043 mm^2
                Peak Dynamic = 0.412321 W
                Subthreshold Leakage = 0.0178333 W
                Gate Leakage = 0.00084265 W
                Runtime Dynamic = 0.00740158 W

              ROB:
                Area = 1.86679 mm^2
                Peak Dynamic = 2.92063 W
                Subthreshold Leakage = 0.0467734 W
                Gate Leakage = 0.00141967 W
                Runtime Dynamic = 0.0795131 W

          Integer ALUs (Count: 6 ):
            Area = 0.672672 mm^2
            Peak Dynamic = 2.72514 W
            Subthreshold Leakage = 1.01603 W
            Gate Leakage = 0.0454759 W
            Runtime Dynamic = 0.145785 W

          Floating Point Units (FPUs) (Count: 2 ):
            Area = 9.71959 mm^2
            Peak Dynamic = 0.88336 W
            Subthreshold Leakage = 3.67022 W
            Gate Leakage = 0.164273 W
            Runtime Dynamic = 0.368433 W

          Complex ALUs (Mul/Div) (Count: 1 ):
            Area = 0.336336 mm^2
            Peak Dynamic = 0.327362 W
            Subthreshold Leakage = 0.508016 W
            Gate Leakage = 0.0227379 W
            Runtime Dynamic = 0.21939 W

          Results Broadcast Bus:
            Area Overhead = 0.0985999 mm^2
            Peak Dynamic = 3.37561 W
            Subthreshold Leakage = 0.241117 W
            Gate Leakage = 0.010792 W
            Runtime Dynamic = 0 W

*****************************************************************************************
Core:
      Area = 61.3493 mm^2
      Peak Dynamic = 44.2386 W
      Subthreshold Leakage = 17.5347 W
      Gate Leakage = 0.837564 W
      Runtime Dynamic = 1.44795 W

      Instruction Fetch Unit:
        Area = 12.8015 mm^2
        Peak Dynamic = 6.36544 W
        Subthreshold Leakage = 2.14624 W
        Gate Leakage = 0.0938309 W
        Runtime Dynamic = 0.0964615 W

          Instruction Cache:
            Area = 3.387 mm^2
            Peak Dynamic = 1.50753 W
            Subthreshold Leakage = 0.653302 W
            Gate Leakage = 0.026836 W
            Runtime Dynamic = 0.00342243 W

          Branch Target Buffer:
            Area = 0.929417 mm^2
            Peak Dynamic = 0.0843569 W
            Subthreshold Leakage = 0.0901849 W
            Gate Leakage = 0.00212441 W
            Runtime Dynamic = 0.00186027 W

          Branch Predictor:
            Area = 0.256492 mm^2
            Peak Dynamic = 0.0739778 W
            Subthreshold Leakage = 0.0552507 W
            Gate Leakage = 0.00144552 W
            Runtime Dynamic = 0.000451544 W

              Global Predictor:
                Area = 0.0856941 mm^2
                Peak Dynamic = 0.0191787 W
                Subthreshold Leakage = 0.0197055 W
                Gate Leakage = 0.000495847 W
                Runtime Dynamic = 0.000132676 W

              Local Predictor:
              L1_Local Predictor:
                Area = 0.0483655 mm^2
                Peak Dynamic = 0.0163721 W
                Subthreshold Leakage = 0.0100013 W
                Gate Leakage = 0.000280458 W
                Runtime Dynamic = 0.0001178 W

              L2_Local Predictor:
                Area = 0.0253579 mm^2
                Peak Dynamic = 0.00834565 W
                Subthreshold Leakage = 0.0050708 W
                Gate Leakage = 0.000147753 W
                Runtime Dynamic = 6.00523e-05 W

              Chooser:
                Area = 0.0856941 mm^2
                Peak Dynamic = 0.0191787 W
                Subthreshold Leakage = 0.0197055 W
                Gate Leakage = 0.000495847 W
                Runtime Dynamic = 0.000132676 W

              RAS:
                Area = 0.0113805 mm^2
                Peak Dynamic = 0.0109026 W
                Subthreshold Leakage = 0.000767647 W
                Gate Leakage = 2.56146e-05 W
                Runtime Dynamic = 8.33875e-06 W

          Instruction Buffer:
            Area = 0.0602122 mm^2
            Peak Dynamic = 1.67657 W
            Subthreshold Leakage = 0.00576253 W
            Gate Leakage = 0.00018516 W
            Runtime Dynamic = 0.0236539 W

          Instruction Decoder:
            Area = 7.75308 mm^2
            Peak Dynamic = 2.66207 W
            Subthreshold Leakage = 1.1189 W
            Gate Leakage = 0.0381395 W
            Runtime Dynamic = 0.0375579 W

      Renaming Unit:
        Area = 1.23784 mm^2
        Peak Dynamic = 8.24718 W
        Subthreshold Leakage = 0.236699 W
        Gate Leakage = 0.0255856 W
        Runtime Dynamic = 0.17609 W

          Int Front End RAT with 1 internal checkpoints:
            Area = 0.184722 mm^2
            Peak Dynamic = 5.14163 W
            Subthreshold Leakage = 0.00273136 W
            Gate Leakage = 0.000106646 W
            Runtime Dynamic = 0.0406541 W

          FP Front End RAT with 1 internal checkpoints:
            Area = 0.025747 mm^2
            Peak Dynamic = 1.25552 W
            Subthreshold Leakage = 0.000877353 W
            Gate Leakage = 5.24626e-05 W
            Runtime Dynamic = 0.0126227 W

          Free List:
            Area = 0.480797 mm^2
            Peak Dynamic = 0.251514 W
            Subthreshold Leakage = 0.00659346 W
            Gate Leakage = 0.000203822 W
            Runtime Dynamic = 0.00397352 W

          FP Free List:
            Area = 0.131231 mm^2
            Peak Dynamic = 0.154797 W
            Subthreshold Leakage = 0.00365632 W
            Gate Leakage = 0.000122342 W
            Runtime Dynamic = 0.000777176 W

      Load Store Unit:
        Area = 14.8953 mm^2
        Peak Dynamic = 6.43431 W
        Subthreshold Leakage = 2.53356 W
        Gate Leakage = 0.125582 W
        Runtime Dynamic = 0.078342 W

          Data Cache:
            Area = 11.9681 mm^2
            Peak Dynamic = 5.56525 W
            Subthreshold Leakage = 2.16076 W
            Gate Leakage = 0.093823 W
            Runtime Dynamic = 0.0236536 W

          LoadQ:
            Area = 0.597754 mm^2
            Peak Dynamic = 0.254064 W
            Subthreshold Leakage = 0.0749804 W
            Gate Leakage = 0.00332956 W
            Runtime Dynamic = 0.00839098 W

          StoreQ:
            Area = 0.597754 mm^2
            Peak Dynamic = 0.254064 W
            Subthreshold Leakage = 0.0749804 W
            Gate Leakage = 0.00332956 W
            Runtime Dynamic = 0.016782 W

      Memory Management Unit:
        Area = 0.85051 mm^2
        Peak Dynamic = 0.984785 W
        Subthreshold Leakage = 0.281996 W
        Runtime Dynamic = 0.0761548 W

          Itlb:
            Area = 0.104115 mm^2
            Peak Dynamic = 0.0198463 W
            Subthreshold Leakage = 0.0168404 W
            Gate Leakage = 0.000696321 W
            Runtime Dynamic = 0 W

          Dtlb:
            Area = 0.331051 mm^2
            Peak Dynamic = 0.0626126 W
            Subthreshold Leakage = 0.0423145 W
            Gate Leakage = 0.00180917 W
            Runtime Dynamic = 0.00236603 W

      Execution Unit:
        Area = 23.098 mm^2
        Peak Dynamic = 22.2069 W
        Subthreshold Leakage = 5.94234 W
        Runtime Dynamic = 1.0209 W

          Register Files:
            Area = 9.35294 mm^2
            Peak Dynamic = 8.61065 W
            Subthreshold Leakage = 0.183607 W
            Gate Leakage = 0.00649419 W
            Runtime Dynamic = 0.0504941 W

              Integer RF:
                Area = 4.67647 mm^2
                Peak Dynamic = 6.91996 W
                Subthreshold Leakage = 0.0918036 W
                Gate Leakage = 0.00324709 W
                Runtime Dynamic = 0.0367319 W

              Floating Point RF:
                Area = 4.67647 mm^2
                Peak Dynamic = 1.69068 W
                Subthreshold Leakage = 0.0918036 W
                Gate Leakage = 0.00324709 W
                Runtime Dynamic = 0.0137622 W

          Instruction Scheduler:
            Area = 2.5025 mm^2
            Peak Dynamic = 4.84103 W
            Subthreshold Leakage = 0.100503 W
            Gate Leakage = 0.00390898 W
            Runtime Dynamic = 0.118732 W

              Instruction Window:
                Area = 0.497673 mm^2
                Peak Dynamic = 1.50808 W
                Subthreshold Leakage = 0.0358961 W
                Gate Leakage = 0.00164666 W
                Runtime Dynamic = 0.03155 W

              FP Instruction Window:
                Area = 0.138043 mm^2
                Peak Dynamic = 0.412321 W
                Subthreshold Leakage = 0.0178333 W
                Gate Leakage = 0.00084265 W
                Runtime Dynamic = 0.0074003 W

              ROB:
                Area = 1.86679 mm^2
                Peak Dynamic = 2.92063 W
                Subthreshold Leakage = 0.0467734 W
                Gate Leakage = 0.00141967 W
                Runtime Dynamic = 0.0797822 W

          Integer ALUs (Count: 6 ):
            Area = 0.672672 mm^2
            Peak Dynamic = 2.72514 W
            Subthreshold Leakage = 1.01603 W
            Gate Leakage = 0.0454759 W
            Runtime Dynamic = 0.145801 W

          Floating Point Units (FPUs) (Count: 2 ):
            Area = 9.71959 mm^2
            Peak Dynamic = 0.88336 W
            Subthreshold Leakage = 3.67022 W
            Gate Leakage = 0.164273 W
            Runtime Dynamic = 0.368418 W

          Complex ALUs (Mul/Div) (Count: 1 ):
            Area = 0.336336 mm^2
            Peak Dynamic = 0.327362 W
            Subthreshold Leakage = 0.508016 W
            Gate Leakage = 0.0227379 W
            Runtime Dynamic = 0.21939 W

          Results Broadcast Bus:
            Area Overhead = 0.0985999 mm^2
            Peak Dynamic = 3.37561 W
            Subthreshold Leakage = 0.241117 W
            Gate Leakage = 0.010792 W
            Runtime Dynamic = 0 W

*****************************************************************************************
Core:
      Area = 61.3493 mm^2
      Peak Dynamic = 44.2386 W
      Subthreshold Leakage = 17.5347 W
      Gate Leakage = 0.837564 W
      Runtime Dynamic = 1.44781 W

      Instruction Fetch Unit:
        Area = 12.8015 mm^2
        Peak Dynamic = 6.36544 W
        Subthreshold Leakage = 2.14624 W
        Gate Leakage = 0.0938309 W
        Runtime Dynamic = 0.0964772 W

          Instruction Cache:
            Area = 3.387 mm^2
            Peak Dynamic = 1.50753 W
            Subthreshold Leakage = 0.653302 W
            Gate Leakage = 0.026836 W
            Runtime Dynamic = 0.00342242 W

          Branch Target Buffer:
            Area = 0.929417 mm^2
            Peak Dynamic = 0.0843569 W
            Subthreshold Leakage = 0.0901849 W
            Gate Leakage = 0.00212441 W
            Runtime Dynamic = 0.00185999 W

          Branch Predictor:
            Area = 0.256492 mm^2
            Peak Dynamic = 0.0739778 W
            Subthreshold Leakage = 0.0552507 W
            Gate Leakage = 0.00144552 W
            Runtime Dynamic = 0.00045203 W

              Global Predictor:
                Area = 0.0856941 mm^2
                Peak Dynamic = 0.0191787 W
                Subthreshold Leakage = 0.0197055 W
                Gate Leakage = 0.000495847 W
                Runtime Dynamic = 0.00013282 W

              Local Predictor:
              L1_Local Predictor:
                Area = 0.0483655 mm^2
                Peak Dynamic = 0.0163721 W
                Subthreshold Leakage = 0.0100013 W
                Gate Leakage = 0.000280458 W
                Runtime Dynamic = 0.000117932 W

              L2_Local Predictor:
                Area = 0.0253579 mm^2
                Peak Dynamic = 0.00834565 W
                Subthreshold Leakage = 0.0050708 W
                Gate Leakage = 0.000147753 W
                Runtime Dynamic = 6.01195e-05 W

              Chooser:
                Area = 0.0856941 mm^2
                Peak Dynamic = 0.0191787 W
                Subthreshold Leakage = 0.0197055 W
                Gate Leakage = 0.000495847 W
                Runtime Dynamic = 0.00013282 W

              RAS:
                Area = 0.0113805 mm^2
                Peak Dynamic = 0.0109026 W
                Subthreshold Leakage = 0.000767647 W
                Gate Leakage = 2.56146e-05 W
                Runtime Dynamic = 8.33875e-06 W

          Instruction Buffer:
            Area = 0.0602122 mm^2
            Peak Dynamic = 1.67657 W
            Subthreshold Leakage = 0.00576253 W
            Gate Leakage = 0.00018516 W
            Runtime Dynamic = 0.023657 W

          Instruction Decoder:
            Area = 7.75308 mm^2
            Peak Dynamic = 2.66207 W
            Subthreshold Leakage = 1.1189 W
            Gate Leakage = 0.0381395 W
            Runtime Dynamic = 0.0375627 W

      Renaming Unit:
        Area = 1.23784 mm^2
        Peak Dynamic = 8.24718 W
        Subthreshold Leakage = 0.236699 W
        Gate Leakage = 0.0255856 W
        Runtime Dynamic = 0.176072 W

          Int Front End RAT with 1 internal checkpoints:
            Area = 0.184722 mm^2
            Peak Dynamic = 5.14163 W
            Subthreshold Leakage = 0.00273136 W
            Gate Leakage = 0.000106646 W
            Runtime Dynamic = 0.0406136 W

          FP Front End RAT with 1 internal checkpoints:
            Area = 0.025747 mm^2
            Peak Dynamic = 1.25552 W
            Subthreshold Leakage = 0.000877353 W
            Gate Leakage = 5.24626e-05 W
            Runtime Dynamic = 0.012619 W

          Free List:
            Area = 0.480797 mm^2
            Peak Dynamic = 0.251514 W
            Subthreshold Leakage = 0.00659346 W
            Gate Leakage = 0.000203822 W
            Runtime Dynamic = 0.00397002 W

          FP Free List:
            Area = 0.131231 mm^2
            Peak Dynamic = 0.154797 W
            Subthreshold Leakage = 0.00365632 W
            Gate Leakage = 0.000122342 W
            Runtime Dynamic = 0.000777038 W

      Load Store Unit:
        Area = 14.8953 mm^2
        Peak Dynamic = 6.43431 W
        Subthreshold Leakage = 2.53356 W
        Gate Leakage = 0.125582 W
        Runtime Dynamic = 0.0784159 W

          Data Cache:
            Area = 11.9681 mm^2
            Peak Dynamic = 5.56525 W
            Subthreshold Leakage = 2.16076 W
            Gate Leakage = 0.093823 W
            Runtime Dynamic = 0.0236868 W

          LoadQ:
            Area = 0.597754 mm^2
            Peak Dynamic = 0.254064 W
            Subthreshold Leakage = 0.0749804 W
            Gate Leakage = 0.00332956 W
            Runtime Dynamic = 0.00840204 W

          StoreQ:
            Area = 0.597754 mm^2
            Peak Dynamic = 0.254064 W
            Subthreshold Leakage = 0.0749804 W
            Gate Leakage = 0.00332956 W
            Runtime Dynamic = 0.0168041 W

      Memory Management Unit:
        Area = 0.85051 mm^2
        Peak Dynamic = 0.984785 W
        Subthreshold Leakage = 0.281996 W
        Runtime Dynamic = 0.0761727 W

          Itlb:
            Area = 0.104115 mm^2
            Peak Dynamic = 0.0198463 W
            Subthreshold Leakage = 0.0168404 W
            Gate Leakage = 0.000696321 W
            Runtime Dynamic = 0 W

          Dtlb:
            Area = 0.331051 mm^2
            Peak Dynamic = 0.0626126 W
            Subthreshold Leakage = 0.0423145 W
            Gate Leakage = 0.00180917 W
            Runtime Dynamic = 0.00236514 W

      Execution Unit:
        Area = 23.098 mm^2
        Peak Dynamic = 22.2069 W
        Subthreshold Leakage = 5.94234 W
        Runtime Dynamic = 1.02067 W

          Register Files:
            Area = 9.35294 mm^2
            Peak Dynamic = 8.61065 W
            Subthreshold Leakage = 0.183607 W
            Gate Leakage = 0.00649419 W
            Runtime Dynamic = 0.0504964 W

              Integer RF:
                Area = 4.67647 mm^2
                Peak Dynamic = 6.91996 W
                Subthreshold Leakage = 0.0918036 W
                Gate Leakage = 0.00324709 W
                Runtime Dynamic = 0.0367328 W

              Floating Point RF:
                Area = 4.67647 mm^2
                Peak Dynamic = 1.69068 W
                Subthreshold Leakage = 0.0918036 W
                Gate Leakage = 0.00324709 W
                Runtime Dynamic = 0.0137637 W

          Instruction Scheduler:
            Area = 2.5025 mm^2
            Peak Dynamic = 4.84103 W
            Subthreshold Leakage = 0.100503 W
            Gate Leakage = 0.00390898 W
            Runtime Dynamic = 0.118451 W

              Instruction Window:
                Area = 0.497673 mm^2
                Peak Dynamic = 1.50808 W
                Subthreshold Leakage = 0.0358961 W
                Gate Leakage = 0.00164666 W
                Runtime Dynamic = 0.0314346 W

              FP Instruction Window:
                Area = 0.138043 mm^2
                Peak Dynamic = 0.412321 W
                Subthreshold Leakage = 0.0178333 W
                Gate Leakage = 0.00084265 W
                Runtime Dynamic = 0.00739878 W

              ROB:
                Area = 1.86679 mm^2
                Peak Dynamic = 2.92063 W
                Subthreshold Leakage = 0.0467734 W
                Gate Leakage = 0.00141967 W
                Runtime Dynamic = 0.0796176 W

          Integer ALUs (Count: 6 ):
            Area = 0.672672 mm^2
            Peak Dynamic = 2.72514 W
            Subthreshold Leakage = 1.01603 W
            Gate Leakage = 0.0454759 W
            Runtime Dynamic = 0.14581 W

          Floating Point Units (FPUs) (Count: 2 ):
            Area = 9.71959 mm^2
            Peak Dynamic = 0.88336 W
            Subthreshold Leakage = 3.67022 W
            Gate Leakage = 0.164273 W
            Runtime Dynamic = 0.368429 W

          Complex ALUs (Mul/Div) (Count: 1 ):
            Area = 0.336336 mm^2
            Peak Dynamic = 0.327362 W
            Subthreshold Leakage = 0.508016 W
            Gate Leakage = 0.0227379 W
            Runtime Dynamic = 0.21939 W

          Results Broadcast Bus:
            Area Overhead = 0.0985999 mm^2
            Peak Dynamic = 3.37561 W
            Subthreshold Leakage = 0.241117 W
            Gate Leakage = 0.010792 W
            Runtime Dynamic = 0 W

*****************************************************************************************
L2
      Area = 157.101 mm^2
      Peak Dynamic = 3.52247 W
      Subthreshold Leakage = 14.5072 W
      Gate Leakage = 1.25317 W
      Runtime Dynamic = 0.0305172 W

*****************************************************************************************
BUSES
      Area = 9.24522 mm^2
      Peak Dynamic = 21.4746 W
      Subthreshold Leakage = 0.284846 W
      Gate Leakage = 0.0212595 W
      Runtime Dynamic = 0.0803491 W

      Bus: 
        Area = 9.24522 mm^2
        Peak Dynamic = 21.4746 W
        Subthreshold Leakage = 0.284846 W
        Gate Leakage = 0.0212595 W
        Runtime Dynamic = 0.0803491 W

*****************************************************************************************
