McPAT (version 1.3 of Feb, 2015) is computing the target processor...
 
Warning: L2cache array structure cannot satisfy latency constraint.

McPAT (version 1.3 of Feb, 2015) results  (current print level is 5)
*****************************************************************************************
  Technology 65 nm
  Interconnect metal projection= aggressive interconnect technology projection
  Core clock Rate(MHz) 1999

*****************************************************************************************
Processor: 
  Area = 1147.94 mm^2
  Peak Power = 1042.84 W
  Total Leakage = 310.022 W
  Peak Dynamic = 732.815 W
  Subthreshold Leakage = 295.347 W
  Gate Leakage = 14.6755 W
  Runtime Dynamic = 17.9483 W

  Total Cores: 16 cores 
  Device Type= ITRS high performance device type
    Area = 981.589 mm^2
    Peak Dynamic = 707.817 W
    Subthreshold Leakage = 280.555 W
    Gate Leakage = 13.401 W
    Runtime Dynamic = 17.8356 W

  Total L2s: 
  Device Type= ITRS high performance device type
    Area = 157.101 mm^2
    Peak Dynamic = 3.52247 W
    Subthreshold Leakage = 14.5072 W
    Gate Leakage = 1.25317 W
    Runtime Dynamic = 0.0307596 W

  Total NoCs (Network/Bus): 
  Device Type= ITRS high performance device type
    Area = 9.24522 mm^2
    Peak Dynamic = 21.4746 W
    Subthreshold Leakage = 0.284846 W
    Gate Leakage = 0.0212595 W
    Runtime Dynamic = 0.0819555 W

*****************************************************************************************
Core:
      Area = 61.3493 mm^2
      Peak Dynamic = 44.2386 W
      Subthreshold Leakage = 17.5347 W
      Gate Leakage = 0.837564 W
      Runtime Dynamic = 1.05527 W

      Instruction Fetch Unit:
        Area = 12.8015 mm^2
        Peak Dynamic = 6.36544 W
        Subthreshold Leakage = 2.14624 W
        Gate Leakage = 0.0938309 W
        Runtime Dynamic = 0.0439177 W

          Instruction Cache:
            Area = 3.387 mm^2
            Peak Dynamic = 1.50753 W
            Subthreshold Leakage = 0.653302 W
            Gate Leakage = 0.026836 W
            Runtime Dynamic = 0.00288312 W

          Branch Target Buffer:
            Area = 0.929417 mm^2
            Peak Dynamic = 0.0843569 W
            Subthreshold Leakage = 0.0901849 W
            Gate Leakage = 0.00212441 W
            Runtime Dynamic = 0.00100053 W

          Branch Predictor:
            Area = 0.256492 mm^2
            Peak Dynamic = 0.0739778 W
            Subthreshold Leakage = 0.0552507 W
            Gate Leakage = 0.00144552 W
            Runtime Dynamic = 0.000291251 W

              Global Predictor:
                Area = 0.0856941 mm^2
                Peak Dynamic = 0.0191787 W
                Subthreshold Leakage = 0.0197055 W
                Gate Leakage = 0.000495847 W
                Runtime Dynamic = 8.62457e-05 W

              Local Predictor:
              L1_Local Predictor:
                Area = 0.0483655 mm^2
                Peak Dynamic = 0.0163721 W
                Subthreshold Leakage = 0.0100013 W
                Gate Leakage = 0.000280458 W
                Runtime Dynamic = 7.67864e-05 W

              L2_Local Predictor:
                Area = 0.0253579 mm^2
                Peak Dynamic = 0.00834565 W
                Subthreshold Leakage = 0.0050708 W
                Gate Leakage = 0.000147753 W
                Runtime Dynamic = 3.91444e-05 W

              Chooser:
                Area = 0.0856941 mm^2
                Peak Dynamic = 0.0191787 W
                Subthreshold Leakage = 0.0197055 W
                Gate Leakage = 0.000495847 W
                Runtime Dynamic = 8.62457e-05 W

              RAS:
                Area = 0.0113805 mm^2
                Peak Dynamic = 0.0109026 W
                Subthreshold Leakage = 0.000767647 W
                Gate Leakage = 2.56146e-05 W
                Runtime Dynamic = 2.82856e-06 W

          Instruction Buffer:
            Area = 0.0602122 mm^2
            Peak Dynamic = 1.67657 W
            Subthreshold Leakage = 0.00576253 W
            Gate Leakage = 0.00018516 W
            Runtime Dynamic = 0.00735777 W

          Instruction Decoder:
            Area = 7.75308 mm^2
            Peak Dynamic = 2.66207 W
            Subthreshold Leakage = 1.1189 W
            Gate Leakage = 0.0381395 W
            Runtime Dynamic = 0.0116827 W

      Renaming Unit:
        Area = 1.23784 mm^2
        Peak Dynamic = 8.24718 W
        Subthreshold Leakage = 0.236699 W
        Gate Leakage = 0.0255856 W
        Runtime Dynamic = 0.103018 W

          Int Front End RAT with 1 internal checkpoints:
            Area = 0.184722 mm^2
            Peak Dynamic = 5.14163 W
            Subthreshold Leakage = 0.00273136 W
            Gate Leakage = 0.000106646 W
            Runtime Dynamic = 0.0174378 W

          FP Front End RAT with 1 internal checkpoints:
            Area = 0.025747 mm^2
            Peak Dynamic = 1.25552 W
            Subthreshold Leakage = 0.000877353 W
            Gate Leakage = 5.24626e-05 W
            Runtime Dynamic = 0.00105018 W

          Free List:
            Area = 0.480797 mm^2
            Peak Dynamic = 0.251514 W
            Subthreshold Leakage = 0.00659346 W
            Gate Leakage = 0.000203822 W
            Runtime Dynamic = 0.00165783 W

          FP Free List:
            Area = 0.131231 mm^2
            Peak Dynamic = 0.154797 W
            Subthreshold Leakage = 0.00365632 W
            Gate Leakage = 0.000122342 W
            Runtime Dynamic = 6.28883e-05 W

      Load Store Unit:
        Area = 14.8953 mm^2
        Peak Dynamic = 6.43431 W
        Subthreshold Leakage = 2.53356 W
        Gate Leakage = 0.125582 W
        Runtime Dynamic = 0.0393345 W

          Data Cache:
            Area = 11.9681 mm^2
            Peak Dynamic = 5.56525 W
            Subthreshold Leakage = 2.16076 W
            Gate Leakage = 0.093823 W
            Runtime Dynamic = 0.00788046 W

          LoadQ:
            Area = 0.597754 mm^2
            Peak Dynamic = 0.254064 W
            Subthreshold Leakage = 0.0749804 W
            Gate Leakage = 0.00332956 W
            Runtime Dynamic = 0.0035839 W

          StoreQ:
            Area = 0.597754 mm^2
            Peak Dynamic = 0.254064 W
            Subthreshold Leakage = 0.0749804 W
            Gate Leakage = 0.00332956 W
            Runtime Dynamic = 0.0071678 W

      Memory Management Unit:
        Area = 0.85051 mm^2
        Peak Dynamic = 0.984785 W
        Subthreshold Leakage = 0.281996 W
        Runtime Dynamic = 0.0523858 W

          Itlb:
            Area = 0.104115 mm^2
            Peak Dynamic = 0.0198463 W
            Subthreshold Leakage = 0.0168404 W
            Gate Leakage = 0.000696321 W
            Runtime Dynamic = 0 W

          Dtlb:
            Area = 0.331051 mm^2
            Peak Dynamic = 0.0626126 W
            Subthreshold Leakage = 0.0423145 W
            Gate Leakage = 0.00180917 W
            Runtime Dynamic = 0.000629953 W

      Execution Unit:
        Area = 23.098 mm^2
        Peak Dynamic = 22.2069 W
        Subthreshold Leakage = 5.94234 W
        Runtime Dynamic = 0.816617 W

          Register Files:
            Area = 9.35294 mm^2
            Peak Dynamic = 8.61065 W
            Subthreshold Leakage = 0.183607 W
            Gate Leakage = 0.00649419 W
            Runtime Dynamic = 0.0144951 W

              Integer RF:
                Area = 4.67647 mm^2
                Peak Dynamic = 6.91996 W
                Subthreshold Leakage = 0.0918036 W
                Gate Leakage = 0.00324709 W
                Runtime Dynamic = 0.0138349 W

              Floating Point RF:
                Area = 4.67647 mm^2
                Peak Dynamic = 1.69068 W
                Subthreshold Leakage = 0.0918036 W
                Gate Leakage = 0.00324709 W
                Runtime Dynamic = 0.000660156 W

          Instruction Scheduler:
            Area = 2.5025 mm^2
            Peak Dynamic = 4.84103 W
            Subthreshold Leakage = 0.100503 W
            Gate Leakage = 0.00390898 W
            Runtime Dynamic = 0.044392 W

              Instruction Window:
                Area = 0.497673 mm^2
                Peak Dynamic = 1.50808 W
                Subthreshold Leakage = 0.0358961 W
                Gate Leakage = 0.00164666 W
                Runtime Dynamic = 0.0147267 W

              FP Instruction Window:
                Area = 0.138043 mm^2
                Peak Dynamic = 0.412321 W
                Subthreshold Leakage = 0.0178333 W
                Gate Leakage = 0.00084265 W
                Runtime Dynamic = 0.000528368 W

              ROB:
                Area = 1.86679 mm^2
                Peak Dynamic = 2.92063 W
                Subthreshold Leakage = 0.0467734 W
                Gate Leakage = 0.00141967 W
                Runtime Dynamic = 0.029137 W

          Integer ALUs (Count: 6 ):
            Area = 0.672672 mm^2
            Peak Dynamic = 2.72514 W
            Subthreshold Leakage = 1.01603 W
            Gate Leakage = 0.0454759 W
            Runtime Dynamic = 0.124433 W

          Floating Point Units (FPUs) (Count: 2 ):
            Area = 9.71959 mm^2
            Peak Dynamic = 0.88336 W
            Subthreshold Leakage = 3.67022 W
            Gate Leakage = 0.164273 W
            Runtime Dynamic = 0.331097 W

          Complex ALUs (Mul/Div) (Count: 1 ):
            Area = 0.336336 mm^2
            Peak Dynamic = 0.327362 W
            Subthreshold Leakage = 0.508016 W
            Gate Leakage = 0.0227379 W
            Runtime Dynamic = 0.21939 W

          Results Broadcast Bus:
            Area Overhead = 0.0985999 mm^2
            Peak Dynamic = 3.37561 W
            Subthreshold Leakage = 0.241117 W
            Gate Leakage = 0.010792 W
            Runtime Dynamic = 0 W

*****************************************************************************************
Core:
      Area = 61.3493 mm^2
      Peak Dynamic = 44.2386 W
      Subthreshold Leakage = 17.5347 W
      Gate Leakage = 0.837564 W
      Runtime Dynamic = 1.0537 W

      Instruction Fetch Unit:
        Area = 12.8015 mm^2
        Peak Dynamic = 6.36544 W
        Subthreshold Leakage = 2.14624 W
        Gate Leakage = 0.0938309 W
        Runtime Dynamic = 0.0424893 W

          Instruction Cache:
            Area = 3.387 mm^2
            Peak Dynamic = 1.50753 W
            Subthreshold Leakage = 0.653302 W
            Gate Leakage = 0.026836 W
            Runtime Dynamic = 0.00144091 W

          Branch Target Buffer:
            Area = 0.929417 mm^2
            Peak Dynamic = 0.0843569 W
            Subthreshold Leakage = 0.0901849 W
            Gate Leakage = 0.00212441 W
            Runtime Dynamic = 0.00100136 W

          Branch Predictor:
            Area = 0.256492 mm^2
            Peak Dynamic = 0.0739778 W
            Subthreshold Leakage = 0.0552507 W
            Gate Leakage = 0.00144552 W
            Runtime Dynamic = 0.000291634 W

              Global Predictor:
                Area = 0.0856941 mm^2
                Peak Dynamic = 0.0191787 W
                Subthreshold Leakage = 0.0197055 W
                Gate Leakage = 0.000495847 W
                Runtime Dynamic = 8.63605e-05 W

              Local Predictor:
              L1_Local Predictor:
                Area = 0.0483655 mm^2
                Peak Dynamic = 0.0163721 W
                Subthreshold Leakage = 0.0100013 W
                Gate Leakage = 0.000280458 W
                Runtime Dynamic = 7.68884e-05 W

              L2_Local Predictor:
                Area = 0.0253579 mm^2
                Peak Dynamic = 0.00834565 W
                Subthreshold Leakage = 0.0050708 W
                Gate Leakage = 0.000147753 W
                Runtime Dynamic = 3.91964e-05 W

              Chooser:
                Area = 0.0856941 mm^2
                Peak Dynamic = 0.0191787 W
                Subthreshold Leakage = 0.0197055 W
                Gate Leakage = 0.000495847 W
                Runtime Dynamic = 8.63605e-05 W

              RAS:
                Area = 0.0113805 mm^2
                Peak Dynamic = 0.0109026 W
                Subthreshold Leakage = 0.000767647 W
                Gate Leakage = 2.56146e-05 W
                Runtime Dynamic = 2.82856e-06 W

          Instruction Buffer:
            Area = 0.0602122 mm^2
            Peak Dynamic = 1.67657 W
            Subthreshold Leakage = 0.00576253 W
            Gate Leakage = 0.00018516 W
            Runtime Dynamic = 0.00736232 W

          Instruction Decoder:
            Area = 7.75308 mm^2
            Peak Dynamic = 2.66207 W
            Subthreshold Leakage = 1.1189 W
            Gate Leakage = 0.0381395 W
            Runtime Dynamic = 0.0116899 W

      Renaming Unit:
        Area = 1.23784 mm^2
        Peak Dynamic = 8.24718 W
        Subthreshold Leakage = 0.236699 W
        Gate Leakage = 0.0255856 W
        Runtime Dynamic = 0.103007 W

          Int Front End RAT with 1 internal checkpoints:
            Area = 0.184722 mm^2
            Peak Dynamic = 5.14163 W
            Subthreshold Leakage = 0.00273136 W
            Gate Leakage = 0.000106646 W
            Runtime Dynamic = 0.0174207 W

          FP Front End RAT with 1 internal checkpoints:
            Area = 0.025747 mm^2
            Peak Dynamic = 1.25552 W
            Subthreshold Leakage = 0.000877353 W
            Gate Leakage = 5.24626e-05 W
            Runtime Dynamic = 0.0010543 W

          Free List:
            Area = 0.480797 mm^2
            Peak Dynamic = 0.251514 W
            Subthreshold Leakage = 0.00659346 W
            Gate Leakage = 0.000203822 W
            Runtime Dynamic = 0.00165663 W

          FP Free List:
            Area = 0.131231 mm^2
            Peak Dynamic = 0.154797 W
            Subthreshold Leakage = 0.00365632 W
            Gate Leakage = 0.000122342 W
            Runtime Dynamic = 6.31508e-05 W

      Load Store Unit:
        Area = 14.8953 mm^2
        Peak Dynamic = 6.43431 W
        Subthreshold Leakage = 2.53356 W
        Gate Leakage = 0.125582 W
        Runtime Dynamic = 0.0392852 W

          Data Cache:
            Area = 11.9681 mm^2
            Peak Dynamic = 5.56525 W
            Subthreshold Leakage = 2.16076 W
            Gate Leakage = 0.093823 W
            Runtime Dynamic = 0.00783156 W

          LoadQ:
            Area = 0.597754 mm^2
            Peak Dynamic = 0.254064 W
            Subthreshold Leakage = 0.0749804 W
            Gate Leakage = 0.00332956 W
            Runtime Dynamic = 0.0035835 W

          StoreQ:
            Area = 0.597754 mm^2
            Peak Dynamic = 0.254064 W
            Subthreshold Leakage = 0.0749804 W
            Gate Leakage = 0.00332956 W
            Runtime Dynamic = 0.00716701 W

      Memory Management Unit:
        Area = 0.85051 mm^2
        Peak Dynamic = 0.984785 W
        Subthreshold Leakage = 0.281996 W
        Runtime Dynamic = 0.0523889 W

          Itlb:
            Area = 0.104115 mm^2
            Peak Dynamic = 0.0198463 W
            Subthreshold Leakage = 0.0168404 W
            Gate Leakage = 0.000696321 W
            Runtime Dynamic = 0 W

          Dtlb:
            Area = 0.331051 mm^2
            Peak Dynamic = 0.0626126 W
            Subthreshold Leakage = 0.0423145 W
            Gate Leakage = 0.00180917 W
            Runtime Dynamic = 0.000631059 W

      Execution Unit:
        Area = 23.098 mm^2
        Peak Dynamic = 22.2069 W
        Subthreshold Leakage = 5.94234 W
        Runtime Dynamic = 0.81653 W

          Register Files:
            Area = 9.35294 mm^2
            Peak Dynamic = 8.61065 W
            Subthreshold Leakage = 0.183607 W
            Gate Leakage = 0.00649419 W
            Runtime Dynamic = 0.014504 W

              Integer RF:
                Area = 4.67647 mm^2
                Peak Dynamic = 6.91996 W
                Subthreshold Leakage = 0.0918036 W
                Gate Leakage = 0.00324709 W
                Runtime Dynamic = 0.0138397 W

              Floating Point RF:
                Area = 4.67647 mm^2
                Peak Dynamic = 1.69068 W
                Subthreshold Leakage = 0.0918036 W
                Gate Leakage = 0.00324709 W
                Runtime Dynamic = 0.000664351 W

          Instruction Scheduler:
            Area = 2.5025 mm^2
            Peak Dynamic = 4.84103 W
            Subthreshold Leakage = 0.100503 W
            Gate Leakage = 0.00390898 W
            Runtime Dynamic = 0.0442744 W

              Instruction Window:
                Area = 0.497673 mm^2
                Peak Dynamic = 1.50808 W
                Subthreshold Leakage = 0.0358961 W
                Gate Leakage = 0.00164666 W
                Runtime Dynamic = 0.0146767 W

              FP Instruction Window:
                Area = 0.138043 mm^2
                Peak Dynamic = 0.412321 W
                Subthreshold Leakage = 0.0178333 W
                Gate Leakage = 0.00084265 W
                Runtime Dynamic = 0.000531903 W

              ROB:
                Area = 1.86679 mm^2
                Peak Dynamic = 2.92063 W
                Subthreshold Leakage = 0.0467734 W
                Gate Leakage = 0.00141967 W
                Runtime Dynamic = 0.0290657 W

          Integer ALUs (Count: 6 ):
            Area = 0.672672 mm^2
            Peak Dynamic = 2.72514 W
            Subthreshold Leakage = 1.01603 W
            Gate Leakage = 0.0454759 W
            Runtime Dynamic = 0.124436 W

          Floating Point Units (FPUs) (Count: 2 ):
            Area = 9.71959 mm^2
            Peak Dynamic = 0.88336 W
            Subthreshold Leakage = 3.67022 W
            Gate Leakage = 0.164273 W
            Runtime Dynamic = 0.331113 W

          Complex ALUs (Mul/Div) (Count: 1 ):
            Area = 0.336336 mm^2
            Peak Dynamic = 0.327362 W
            Subthreshold Leakage = 0.508016 W
            Gate Leakage = 0.0227379 W
            Runtime Dynamic = 0.21939 W

          Results Broadcast Bus:
            Area Overhead = 0.0985999 mm^2
            Peak Dynamic = 3.37561 W
            Subthreshold Leakage = 0.241117 W
            Gate Leakage = 0.010792 W
            Runtime Dynamic = 0 W

*****************************************************************************************
Core:
      Area = 61.3493 mm^2
      Peak Dynamic = 44.2386 W
      Subthreshold Leakage = 17.5347 W
      Gate Leakage = 0.837564 W
      Runtime Dynamic = 1.05819 W

      Instruction Fetch Unit:
        Area = 12.8015 mm^2
        Peak Dynamic = 6.36544 W
        Subthreshold Leakage = 2.14624 W
        Gate Leakage = 0.0938309 W
        Runtime Dynamic = 0.042866 W

          Instruction Cache:
            Area = 3.387 mm^2
            Peak Dynamic = 1.50753 W
            Subthreshold Leakage = 0.653302 W
            Gate Leakage = 0.026836 W
            Runtime Dynamic = 0.00145092 W

          Branch Target Buffer:
            Area = 0.929417 mm^2
            Peak Dynamic = 0.0843569 W
            Subthreshold Leakage = 0.0901849 W
            Gate Leakage = 0.00212441 W
            Runtime Dynamic = 0.00100218 W

          Branch Predictor:
            Area = 0.256492 mm^2
            Peak Dynamic = 0.0739778 W
            Subthreshold Leakage = 0.0552507 W
            Gate Leakage = 0.00144552 W
            Runtime Dynamic = 0.000292329 W

              Global Predictor:
                Area = 0.0856941 mm^2
                Peak Dynamic = 0.0191787 W
                Subthreshold Leakage = 0.0197055 W
                Gate Leakage = 0.000495847 W
                Runtime Dynamic = 8.65671e-05 W

              Local Predictor:
              L1_Local Predictor:
                Area = 0.0483655 mm^2
                Peak Dynamic = 0.0163721 W
                Subthreshold Leakage = 0.0100013 W
                Gate Leakage = 0.000280458 W
                Runtime Dynamic = 7.70747e-05 W

              L2_Local Predictor:
                Area = 0.0253579 mm^2
                Peak Dynamic = 0.00834565 W
                Subthreshold Leakage = 0.0050708 W
                Gate Leakage = 0.000147753 W
                Runtime Dynamic = 3.92913e-05 W

              Chooser:
                Area = 0.0856941 mm^2
                Peak Dynamic = 0.0191787 W
                Subthreshold Leakage = 0.0197055 W
                Gate Leakage = 0.000495847 W
                Runtime Dynamic = 8.65671e-05 W

              RAS:
                Area = 0.0113805 mm^2
                Peak Dynamic = 0.0109026 W
                Subthreshold Leakage = 0.000767647 W
                Gate Leakage = 2.56146e-05 W
                Runtime Dynamic = 2.82856e-06 W

          Instruction Buffer:
            Area = 0.0602122 mm^2
            Peak Dynamic = 1.67657 W
            Subthreshold Leakage = 0.00576253 W
            Gate Leakage = 0.00018516 W
            Runtime Dynamic = 0.00737982 W

          Instruction Decoder:
            Area = 7.75308 mm^2
            Peak Dynamic = 2.66207 W
            Subthreshold Leakage = 1.1189 W
            Gate Leakage = 0.0381395 W
            Runtime Dynamic = 0.0117177 W

      Renaming Unit:
        Area = 1.23784 mm^2
        Peak Dynamic = 8.24718 W
        Subthreshold Leakage = 0.236699 W
        Gate Leakage = 0.0255856 W
        Runtime Dynamic = 0.104345 W

          Int Front End RAT with 1 internal checkpoints:
            Area = 0.184722 mm^2
            Peak Dynamic = 5.14163 W
            Subthreshold Leakage = 0.00273136 W
            Gate Leakage = 0.000106646 W
            Runtime Dynamic = 0.0174686 W

          FP Front End RAT with 1 internal checkpoints:
            Area = 0.025747 mm^2
            Peak Dynamic = 1.25552 W
            Subthreshold Leakage = 0.000877353 W
            Gate Leakage = 5.24626e-05 W
            Runtime Dynamic = 0.00106024 W

          Free List:
            Area = 0.480797 mm^2
            Peak Dynamic = 0.251514 W
            Subthreshold Leakage = 0.00659346 W
            Gate Leakage = 0.000203822 W
            Runtime Dynamic = 0.00166094 W

          FP Free List:
            Area = 0.131231 mm^2
            Peak Dynamic = 0.154797 W
            Subthreshold Leakage = 0.00365632 W
            Gate Leakage = 0.000122342 W
            Runtime Dynamic = 6.34956e-05 W

      Load Store Unit:
        Area = 14.8953 mm^2
        Peak Dynamic = 6.43431 W
        Subthreshold Leakage = 2.53356 W
        Gate Leakage = 0.125582 W
        Runtime Dynamic = 0.0396659 W

          Data Cache:
            Area = 11.9681 mm^2
            Peak Dynamic = 5.56525 W
            Subthreshold Leakage = 2.16076 W
            Gate Leakage = 0.093823 W
            Runtime Dynamic = 0.00786839 W

          LoadQ:
            Area = 0.597754 mm^2
            Peak Dynamic = 0.254064 W
            Subthreshold Leakage = 0.0749804 W
            Gate Leakage = 0.00332956 W
            Runtime Dynamic = 0.00359149 W

          StoreQ:
            Area = 0.597754 mm^2
            Peak Dynamic = 0.254064 W
            Subthreshold Leakage = 0.0749804 W
            Gate Leakage = 0.00332956 W
            Runtime Dynamic = 0.00718298 W

      Memory Management Unit:
        Area = 0.85051 mm^2
        Peak Dynamic = 0.984785 W
        Subthreshold Leakage = 0.281996 W
        Runtime Dynamic = 0.0531899 W

          Itlb:
            Area = 0.104115 mm^2
            Peak Dynamic = 0.0198463 W
            Subthreshold Leakage = 0.0168404 W
            Gate Leakage = 0.000696321 W
            Runtime Dynamic = 0 W

          Dtlb:
            Area = 0.331051 mm^2
            Peak Dynamic = 0.0626126 W
            Subthreshold Leakage = 0.0423145 W
            Gate Leakage = 0.00180917 W
            Runtime Dynamic = 0.000632287 W

      Execution Unit:
        Area = 23.098 mm^2
        Peak Dynamic = 22.2069 W
        Subthreshold Leakage = 5.94234 W
        Runtime Dynamic = 0.818118 W

          Register Files:
            Area = 9.35294 mm^2
            Peak Dynamic = 8.61065 W
            Subthreshold Leakage = 0.183607 W
            Gate Leakage = 0.00649419 W
            Runtime Dynamic = 0.0145416 W

              Integer RF:
                Area = 4.67647 mm^2
                Peak Dynamic = 6.91996 W
                Subthreshold Leakage = 0.0918036 W
                Gate Leakage = 0.00324709 W
                Runtime Dynamic = 0.0138733 W

              Floating Point RF:
                Area = 4.67647 mm^2
                Peak Dynamic = 1.69068 W
                Subthreshold Leakage = 0.0918036 W
                Gate Leakage = 0.00324709 W
                Runtime Dynamic = 0.000668284 W

          Instruction Scheduler:
            Area = 2.5025 mm^2
            Peak Dynamic = 4.84103 W
            Subthreshold Leakage = 0.100503 W
            Gate Leakage = 0.00390898 W
            Runtime Dynamic = 0.0444999 W

              Instruction Window:
                Area = 0.497673 mm^2
                Peak Dynamic = 1.50808 W
                Subthreshold Leakage = 0.0358961 W
                Gate Leakage = 0.00164666 W
                Runtime Dynamic = 0.014768 W

              FP Instruction Window:
                Area = 0.138043 mm^2
                Peak Dynamic = 0.412321 W
                Subthreshold Leakage = 0.0178333 W
                Gate Leakage = 0.00084265 W
                Runtime Dynamic = 0.000534458 W

              ROB:
                Area = 1.86679 mm^2
                Peak Dynamic = 2.92063 W
                Subthreshold Leakage = 0.0467734 W
                Gate Leakage = 0.00141967 W
                Runtime Dynamic = 0.0291975 W

          Integer ALUs (Count: 6 ):
            Area = 0.672672 mm^2
            Peak Dynamic = 2.72514 W
            Subthreshold Leakage = 1.01603 W
            Gate Leakage = 0.0454759 W
            Runtime Dynamic = 0.124471 W

          Floating Point Units (FPUs) (Count: 2 ):
            Area = 9.71959 mm^2
            Peak Dynamic = 0.88336 W
            Subthreshold Leakage = 3.67022 W
            Gate Leakage = 0.164273 W
            Runtime Dynamic = 0.331123 W

          Complex ALUs (Mul/Div) (Count: 1 ):
            Area = 0.336336 mm^2
            Peak Dynamic = 0.327362 W
            Subthreshold Leakage = 0.508016 W
            Gate Leakage = 0.0227379 W
            Runtime Dynamic = 0.21939 W

          Results Broadcast Bus:
            Area Overhead = 0.0985999 mm^2
            Peak Dynamic = 3.37561 W
            Subthreshold Leakage = 0.241117 W
            Gate Leakage = 0.010792 W
            Runtime Dynamic = 0 W

*****************************************************************************************
Core:
      Area = 61.3493 mm^2
      Peak Dynamic = 44.2386 W
      Subthreshold Leakage = 17.5347 W
      Gate Leakage = 0.837564 W
      Runtime Dynamic = 1.06334 W

      Instruction Fetch Unit:
        Area = 12.8015 mm^2
        Peak Dynamic = 6.36544 W
        Subthreshold Leakage = 2.14624 W
        Gate Leakage = 0.0938309 W
        Runtime Dynamic = 0.043257 W

          Instruction Cache:
            Area = 3.387 mm^2
            Peak Dynamic = 1.50753 W
            Subthreshold Leakage = 0.653302 W
            Gate Leakage = 0.026836 W
            Runtime Dynamic = 0.00144616 W

          Branch Target Buffer:
            Area = 0.929417 mm^2
            Peak Dynamic = 0.0843569 W
            Subthreshold Leakage = 0.0901849 W
            Gate Leakage = 0.00212441 W
            Runtime Dynamic = 0.00100315 W

          Branch Predictor:
            Area = 0.256492 mm^2
            Peak Dynamic = 0.0739778 W
            Subthreshold Leakage = 0.0552507 W
            Gate Leakage = 0.00144552 W
            Runtime Dynamic = 0.000292957 W

              Global Predictor:
                Area = 0.0856941 mm^2
                Peak Dynamic = 0.0191787 W
                Subthreshold Leakage = 0.0197055 W
                Gate Leakage = 0.000495847 W
                Runtime Dynamic = 8.67601e-05 W

              Local Predictor:
              L1_Local Predictor:
                Area = 0.0483655 mm^2
                Peak Dynamic = 0.0163721 W
                Subthreshold Leakage = 0.0100013 W
                Gate Leakage = 0.000280458 W
                Runtime Dynamic = 7.72352e-05 W

              L2_Local Predictor:
                Area = 0.0253579 mm^2
                Peak Dynamic = 0.00834565 W
                Subthreshold Leakage = 0.0050708 W
                Gate Leakage = 0.000147753 W
                Runtime Dynamic = 3.93731e-05 W

              Chooser:
                Area = 0.0856941 mm^2
                Peak Dynamic = 0.0191787 W
                Subthreshold Leakage = 0.0197055 W
                Gate Leakage = 0.000495847 W
                Runtime Dynamic = 8.67601e-05 W

              RAS:
                Area = 0.0113805 mm^2
                Peak Dynamic = 0.0109026 W
                Subthreshold Leakage = 0.000767647 W
                Gate Leakage = 2.56146e-05 W
                Runtime Dynamic = 2.82856e-06 W

          Instruction Buffer:
            Area = 0.0602122 mm^2
            Peak Dynamic = 1.67657 W
            Subthreshold Leakage = 0.00576253 W
            Gate Leakage = 0.00018516 W
            Runtime Dynamic = 0.00737685 W

          Instruction Decoder:
            Area = 7.75308 mm^2
            Peak Dynamic = 2.66207 W
            Subthreshold Leakage = 1.1189 W
            Gate Leakage = 0.0381395 W
            Runtime Dynamic = 0.011713 W

      Renaming Unit:
        Area = 1.23784 mm^2
        Peak Dynamic = 8.24718 W
        Subthreshold Leakage = 0.236699 W
        Gate Leakage = 0.0255856 W
        Runtime Dynamic = 0.105971 W

          Int Front End RAT with 1 internal checkpoints:
            Area = 0.184722 mm^2
            Peak Dynamic = 5.14163 W
            Subthreshold Leakage = 0.00273136 W
            Gate Leakage = 0.000106646 W
            Runtime Dynamic = 0.0174856 W

          FP Front End RAT with 1 internal checkpoints:
            Area = 0.025747 mm^2
            Peak Dynamic = 1.25552 W
            Subthreshold Leakage = 0.000877353 W
            Gate Leakage = 5.24626e-05 W
            Runtime Dynamic = 0.00105983 W

          Free List:
            Area = 0.480797 mm^2
            Peak Dynamic = 0.251514 W
            Subthreshold Leakage = 0.00659346 W
            Gate Leakage = 0.000203822 W
            Runtime Dynamic = 0.00166258 W

          FP Free List:
            Area = 0.131231 mm^2
            Peak Dynamic = 0.154797 W
            Subthreshold Leakage = 0.00365632 W
            Gate Leakage = 0.000122342 W
            Runtime Dynamic = 6.34744e-05 W

      Load Store Unit:
        Area = 14.8953 mm^2
        Peak Dynamic = 6.43431 W
        Subthreshold Leakage = 2.53356 W
        Gate Leakage = 0.125582 W
        Runtime Dynamic = 0.0400716 W

          Data Cache:
            Area = 11.9681 mm^2
            Peak Dynamic = 5.56525 W
            Subthreshold Leakage = 2.16076 W
            Gate Leakage = 0.093823 W
            Runtime Dynamic = 0.00787107 W

          LoadQ:
            Area = 0.597754 mm^2
            Peak Dynamic = 0.254064 W
            Subthreshold Leakage = 0.0749804 W
            Gate Leakage = 0.00332956 W
            Runtime Dynamic = 0.00359189 W

          StoreQ:
            Area = 0.597754 mm^2
            Peak Dynamic = 0.254064 W
            Subthreshold Leakage = 0.0749804 W
            Gate Leakage = 0.00332956 W
            Runtime Dynamic = 0.00718377 W

      Memory Management Unit:
        Area = 0.85051 mm^2
        Peak Dynamic = 0.984785 W
        Subthreshold Leakage = 0.281996 W
        Runtime Dynamic = 0.0541943 W

          Itlb:
            Area = 0.104115 mm^2
            Peak Dynamic = 0.0198463 W
            Subthreshold Leakage = 0.0168404 W
            Gate Leakage = 0.000696321 W
            Runtime Dynamic = 0 W

          Dtlb:
            Area = 0.331051 mm^2
            Peak Dynamic = 0.0626126 W
            Subthreshold Leakage = 0.0423145 W
            Gate Leakage = 0.00180917 W
            Runtime Dynamic = 0.000632102 W

      Execution Unit:
        Area = 23.098 mm^2
        Peak Dynamic = 22.2069 W
        Subthreshold Leakage = 5.94234 W
        Runtime Dynamic = 0.819845 W

          Register Files:
            Area = 9.35294 mm^2
            Peak Dynamic = 8.61065 W
            Subthreshold Leakage = 0.183607 W
            Gate Leakage = 0.00649419 W
            Runtime Dynamic = 0.0145261 W

              Integer RF:
                Area = 4.67647 mm^2
                Peak Dynamic = 6.91996 W
                Subthreshold Leakage = 0.0918036 W
                Gate Leakage = 0.00324709 W
                Runtime Dynamic = 0.0138656 W

              Floating Point RF:
                Area = 4.67647 mm^2
                Peak Dynamic = 1.69068 W
                Subthreshold Leakage = 0.0918036 W
                Gate Leakage = 0.00324709 W
                Runtime Dynamic = 0.000660505 W

          Instruction Scheduler:
            Area = 2.5025 mm^2
            Peak Dynamic = 4.84103 W
            Subthreshold Leakage = 0.100503 W
            Gate Leakage = 0.00390898 W
            Runtime Dynamic = 0.0446497 W

              Instruction Window:
                Area = 0.497673 mm^2
                Peak Dynamic = 1.50808 W
                Subthreshold Leakage = 0.0358961 W
                Gate Leakage = 0.00164666 W
                Runtime Dynamic = 0.0148283 W

              FP Instruction Window:
                Area = 0.138043 mm^2
                Peak Dynamic = 0.412321 W
                Subthreshold Leakage = 0.0178333 W
                Gate Leakage = 0.00084265 W
                Runtime Dynamic = 0.000533691 W

              ROB:
                Area = 1.86679 mm^2
                Peak Dynamic = 2.92063 W
                Subthreshold Leakage = 0.0467734 W
                Gate Leakage = 0.00141967 W
                Runtime Dynamic = 0.0292877 W

          Integer ALUs (Count: 6 ):
            Area = 0.672672 mm^2
            Peak Dynamic = 2.72514 W
            Subthreshold Leakage = 1.01603 W
            Gate Leakage = 0.0454759 W
            Runtime Dynamic = 0.124468 W

          Floating Point Units (FPUs) (Count: 2 ):
            Area = 9.71959 mm^2
            Peak Dynamic = 0.88336 W
            Subthreshold Leakage = 3.67022 W
            Gate Leakage = 0.164273 W
            Runtime Dynamic = 0.331111 W

          Complex ALUs (Mul/Div) (Count: 1 ):
            Area = 0.336336 mm^2
            Peak Dynamic = 0.327362 W
            Subthreshold Leakage = 0.508016 W
            Gate Leakage = 0.0227379 W
            Runtime Dynamic = 0.21939 W

          Results Broadcast Bus:
            Area Overhead = 0.0985999 mm^2
            Peak Dynamic = 3.37561 W
            Subthreshold Leakage = 0.241117 W
            Gate Leakage = 0.010792 W
            Runtime Dynamic = 0 W

*****************************************************************************************
Core:
      Area = 61.3493 mm^2
      Peak Dynamic = 44.2386 W
      Subthreshold Leakage = 17.5347 W
      Gate Leakage = 0.837564 W
      Runtime Dynamic = 1.0577 W

      Instruction Fetch Unit:
        Area = 12.8015 mm^2
        Peak Dynamic = 6.36544 W
        Subthreshold Leakage = 2.14624 W
        Gate Leakage = 0.0938309 W
        Runtime Dynamic = 0.042793 W

          Instruction Cache:
            Area = 3.387 mm^2
            Peak Dynamic = 1.50753 W
            Subthreshold Leakage = 0.653302 W
            Gate Leakage = 0.026836 W
            Runtime Dynamic = 0.00143853 W

          Branch Target Buffer:
            Area = 0.929417 mm^2
            Peak Dynamic = 0.0843569 W
            Subthreshold Leakage = 0.0901849 W
            Gate Leakage = 0.00212441 W
            Runtime Dynamic = 0.0010001 W

          Branch Predictor:
            Area = 0.256492 mm^2
            Peak Dynamic = 0.0739778 W
            Subthreshold Leakage = 0.0552507 W
            Gate Leakage = 0.00144552 W
            Runtime Dynamic = 0.000290909 W

              Global Predictor:
                Area = 0.0856941 mm^2
                Peak Dynamic = 0.0191787 W
                Subthreshold Leakage = 0.0197055 W
                Gate Leakage = 0.000495847 W
                Runtime Dynamic = 8.61433e-05 W

              Local Predictor:
              L1_Local Predictor:
                Area = 0.0483655 mm^2
                Peak Dynamic = 0.0163721 W
                Subthreshold Leakage = 0.0100013 W
                Gate Leakage = 0.000280458 W
                Runtime Dynamic = 7.66959e-05 W

              L2_Local Predictor:
                Area = 0.0253579 mm^2
                Peak Dynamic = 0.00834565 W
                Subthreshold Leakage = 0.0050708 W
                Gate Leakage = 0.000147753 W
                Runtime Dynamic = 3.90982e-05 W

              Chooser:
                Area = 0.0856941 mm^2
                Peak Dynamic = 0.0191787 W
                Subthreshold Leakage = 0.0197055 W
                Gate Leakage = 0.000495847 W
                Runtime Dynamic = 8.61433e-05 W

              RAS:
                Area = 0.0113805 mm^2
                Peak Dynamic = 0.0109026 W
                Subthreshold Leakage = 0.000767647 W
                Gate Leakage = 2.56146e-05 W
                Runtime Dynamic = 2.82856e-06 W

          Instruction Buffer:
            Area = 0.0602122 mm^2
            Peak Dynamic = 1.67657 W
            Subthreshold Leakage = 0.00576253 W
            Gate Leakage = 0.00018516 W
            Runtime Dynamic = 0.00736172 W

          Instruction Decoder:
            Area = 7.75308 mm^2
            Peak Dynamic = 2.66207 W
            Subthreshold Leakage = 1.1189 W
            Gate Leakage = 0.0381395 W
            Runtime Dynamic = 0.011689 W

      Renaming Unit:
        Area = 1.23784 mm^2
        Peak Dynamic = 8.24718 W
        Subthreshold Leakage = 0.236699 W
        Gate Leakage = 0.0255856 W
        Runtime Dynamic = 0.10424 W

          Int Front End RAT with 1 internal checkpoints:
            Area = 0.184722 mm^2
            Peak Dynamic = 5.14163 W
            Subthreshold Leakage = 0.00273136 W
            Gate Leakage = 0.000106646 W
            Runtime Dynamic = 0.0174024 W

          FP Front End RAT with 1 internal checkpoints:
            Area = 0.025747 mm^2
            Peak Dynamic = 1.25552 W
            Subthreshold Leakage = 0.000877353 W
            Gate Leakage = 5.24626e-05 W
            Runtime Dynamic = 0.00106802 W

          Free List:
            Area = 0.480797 mm^2
            Peak Dynamic = 0.251514 W
            Subthreshold Leakage = 0.00659346 W
            Gate Leakage = 0.000203822 W
            Runtime Dynamic = 0.00165481 W

          FP Free List:
            Area = 0.131231 mm^2
            Peak Dynamic = 0.154797 W
            Subthreshold Leakage = 0.00365632 W
            Gate Leakage = 0.000122342 W
            Runtime Dynamic = 6.39695e-05 W

      Load Store Unit:
        Area = 14.8953 mm^2
        Peak Dynamic = 6.43431 W
        Subthreshold Leakage = 2.53356 W
        Gate Leakage = 0.125582 W
        Runtime Dynamic = 0.0395994 W

          Data Cache:
            Area = 11.9681 mm^2
            Peak Dynamic = 5.56525 W
            Subthreshold Leakage = 2.16076 W
            Gate Leakage = 0.093823 W
            Runtime Dynamic = 0.00783629 W

          LoadQ:
            Area = 0.597754 mm^2
            Peak Dynamic = 0.254064 W
            Subthreshold Leakage = 0.0749804 W
            Gate Leakage = 0.00332956 W
            Runtime Dynamic = 0.00358344 W

          StoreQ:
            Area = 0.597754 mm^2
            Peak Dynamic = 0.254064 W
            Subthreshold Leakage = 0.0749804 W
            Gate Leakage = 0.00332956 W
            Runtime Dynamic = 0.00716688 W

      Memory Management Unit:
        Area = 0.85051 mm^2
        Peak Dynamic = 0.984785 W
        Subthreshold Leakage = 0.281996 W
        Runtime Dynamic = 0.0531623 W

          Itlb:
            Area = 0.104115 mm^2
            Peak Dynamic = 0.0198463 W
            Subthreshold Leakage = 0.0168404 W
            Gate Leakage = 0.000696321 W
            Runtime Dynamic = 0 W

          Dtlb:
            Area = 0.331051 mm^2
            Peak Dynamic = 0.0626126 W
            Subthreshold Leakage = 0.0423145 W
            Gate Leakage = 0.00180917 W
            Runtime Dynamic = 0.000630362 W

      Execution Unit:
        Area = 23.098 mm^2
        Peak Dynamic = 22.2069 W
        Subthreshold Leakage = 5.94234 W
        Runtime Dynamic = 0.817901 W

          Register Files:
            Area = 9.35294 mm^2
            Peak Dynamic = 8.61065 W
            Subthreshold Leakage = 0.183607 W
            Gate Leakage = 0.00649419 W
            Runtime Dynamic = 0.0145044 W

              Integer RF:
                Area = 4.67647 mm^2
                Peak Dynamic = 6.91996 W
                Subthreshold Leakage = 0.0918036 W
                Gate Leakage = 0.00324709 W
                Runtime Dynamic = 0.0138329 W

              Floating Point RF:
                Area = 4.67647 mm^2
                Peak Dynamic = 1.69068 W
                Subthreshold Leakage = 0.0918036 W
                Gate Leakage = 0.00324709 W
                Runtime Dynamic = 0.00067155 W

          Instruction Scheduler:
            Area = 2.5025 mm^2
            Peak Dynamic = 4.84103 W
            Subthreshold Leakage = 0.100503 W
            Gate Leakage = 0.00390898 W
            Runtime Dynamic = 0.0443961 W

              Instruction Window:
                Area = 0.497673 mm^2
                Peak Dynamic = 1.50808 W
                Subthreshold Leakage = 0.0358961 W
                Gate Leakage = 0.00164666 W
                Runtime Dynamic = 0.014729 W

              FP Instruction Window:
                Area = 0.138043 mm^2
                Peak Dynamic = 0.412321 W
                Subthreshold Leakage = 0.0178333 W
                Gate Leakage = 0.00084265 W
                Runtime Dynamic = 0.000538435 W

              ROB:
                Area = 1.86679 mm^2
                Peak Dynamic = 2.92063 W
                Subthreshold Leakage = 0.0467734 W
                Gate Leakage = 0.00141967 W
                Runtime Dynamic = 0.0291286 W

          Integer ALUs (Count: 6 ):
            Area = 0.672672 mm^2
            Peak Dynamic = 2.72514 W
            Subthreshold Leakage = 1.01603 W
            Gate Leakage = 0.0454759 W
            Runtime Dynamic = 0.124427 W

          Floating Point Units (FPUs) (Count: 2 ):
            Area = 9.71959 mm^2
            Peak Dynamic = 0.88336 W
            Subthreshold Leakage = 3.67022 W
            Gate Leakage = 0.164273 W
            Runtime Dynamic = 0.331132 W

          Complex ALUs (Mul/Div) (Count: 1 ):
            Area = 0.336336 mm^2
            Peak Dynamic = 0.327362 W
            Subthreshold Leakage = 0.508016 W
            Gate Leakage = 0.0227379 W
            Runtime Dynamic = 0.21939 W

          Results Broadcast Bus:
            Area Overhead = 0.0985999 mm^2
            Peak Dynamic = 3.37561 W
            Subthreshold Leakage = 0.241117 W
            Gate Leakage = 0.010792 W
            Runtime Dynamic = 0 W

*****************************************************************************************
Core:
      Area = 61.3493 mm^2
      Peak Dynamic = 44.2386 W
      Subthreshold Leakage = 17.5347 W
      Gate Leakage = 0.837564 W
      Runtime Dynamic = 1.06324 W

      Instruction Fetch Unit:
        Area = 12.8015 mm^2
        Peak Dynamic = 6.36544 W
        Subthreshold Leakage = 2.14624 W
        Gate Leakage = 0.0938309 W
        Runtime Dynamic = 0.0432768 W

          Instruction Cache:
            Area = 3.387 mm^2
            Peak Dynamic = 1.50753 W
            Subthreshold Leakage = 0.653302 W
            Gate Leakage = 0.026836 W
            Runtime Dynamic = 0.00145573 W

          Branch Target Buffer:
            Area = 0.929417 mm^2
            Peak Dynamic = 0.0843569 W
            Subthreshold Leakage = 0.0901849 W
            Gate Leakage = 0.00212441 W
            Runtime Dynamic = 0.00100231 W

          Branch Predictor:
            Area = 0.256492 mm^2
            Peak Dynamic = 0.0739778 W
            Subthreshold Leakage = 0.0552507 W
            Gate Leakage = 0.00144552 W
            Runtime Dynamic = 0.000292364 W

              Global Predictor:
                Area = 0.0856941 mm^2
                Peak Dynamic = 0.0191787 W
                Subthreshold Leakage = 0.0197055 W
                Gate Leakage = 0.000495847 W
                Runtime Dynamic = 8.65795e-05 W

              Local Predictor:
              L1_Local Predictor:
                Area = 0.0483655 mm^2
                Peak Dynamic = 0.0163721 W
                Subthreshold Leakage = 0.0100013 W
                Gate Leakage = 0.000280458 W
                Runtime Dynamic = 7.70814e-05 W

              L2_Local Predictor:
                Area = 0.0253579 mm^2
                Peak Dynamic = 0.00834565 W
                Subthreshold Leakage = 0.0050708 W
                Gate Leakage = 0.000147753 W
                Runtime Dynamic = 3.92948e-05 W

              Chooser:
                Area = 0.0856941 mm^2
                Peak Dynamic = 0.0191787 W
                Subthreshold Leakage = 0.0197055 W
                Gate Leakage = 0.000495847 W
                Runtime Dynamic = 8.65795e-05 W

              RAS:
                Area = 0.0113805 mm^2
                Peak Dynamic = 0.0109026 W
                Subthreshold Leakage = 0.000767647 W
                Gate Leakage = 2.56146e-05 W
                Runtime Dynamic = 2.82856e-06 W

          Instruction Buffer:
            Area = 0.0602122 mm^2
            Peak Dynamic = 1.67657 W
            Subthreshold Leakage = 0.00576253 W
            Gate Leakage = 0.00018516 W
            Runtime Dynamic = 0.00738194 W

          Instruction Decoder:
            Area = 7.75308 mm^2
            Peak Dynamic = 2.66207 W
            Subthreshold Leakage = 1.1189 W
            Gate Leakage = 0.0381395 W
            Runtime Dynamic = 0.0117211 W

      Renaming Unit:
        Area = 1.23784 mm^2
        Peak Dynamic = 8.24718 W
        Subthreshold Leakage = 0.236699 W
        Gate Leakage = 0.0255856 W
        Runtime Dynamic = 0.105955 W

          Int Front End RAT with 1 internal checkpoints:
            Area = 0.184722 mm^2
            Peak Dynamic = 5.14163 W
            Subthreshold Leakage = 0.00273136 W
            Gate Leakage = 0.000106646 W
            Runtime Dynamic = 0.0174654 W

          FP Front End RAT with 1 internal checkpoints:
            Area = 0.025747 mm^2
            Peak Dynamic = 1.25552 W
            Subthreshold Leakage = 0.000877353 W
            Gate Leakage = 5.24626e-05 W
            Runtime Dynamic = 0.00107082 W

          Free List:
            Area = 0.480797 mm^2
            Peak Dynamic = 0.251514 W
            Subthreshold Leakage = 0.00659346 W
            Gate Leakage = 0.000203822 W
            Runtime Dynamic = 0.00166073 W

          FP Free List:
            Area = 0.131231 mm^2
            Peak Dynamic = 0.154797 W
            Subthreshold Leakage = 0.00365632 W
            Gate Leakage = 0.000122342 W
            Runtime Dynamic = 6.4135e-05 W

      Load Store Unit:
        Area = 14.8953 mm^2
        Peak Dynamic = 6.43431 W
        Subthreshold Leakage = 2.53356 W
        Gate Leakage = 0.125582 W
        Runtime Dynamic = 0.040036 W

          Data Cache:
            Area = 11.9681 mm^2
            Peak Dynamic = 5.56525 W
            Subthreshold Leakage = 2.16076 W
            Gate Leakage = 0.093823 W
            Runtime Dynamic = 0.00785557 W

          LoadQ:
            Area = 0.597754 mm^2
            Peak Dynamic = 0.254064 W
            Subthreshold Leakage = 0.0749804 W
            Gate Leakage = 0.00332956 W
            Runtime Dynamic = 0.00358568 W

          StoreQ:
            Area = 0.597754 mm^2
            Peak Dynamic = 0.254064 W
            Subthreshold Leakage = 0.0749804 W
            Gate Leakage = 0.00332956 W
            Runtime Dynamic = 0.00717136 W

      Memory Management Unit:
        Area = 0.85051 mm^2
        Peak Dynamic = 0.984785 W
        Subthreshold Leakage = 0.281996 W
        Runtime Dynamic = 0.0541902 W

          Itlb:
            Area = 0.104115 mm^2
            Peak Dynamic = 0.0198463 W
            Subthreshold Leakage = 0.0168404 W
            Gate Leakage = 0.000696321 W
            Runtime Dynamic = 0 W

          Dtlb:
            Area = 0.331051 mm^2
            Peak Dynamic = 0.0626126 W
            Subthreshold Leakage = 0.0423145 W
            Gate Leakage = 0.00180917 W
            Runtime Dynamic = 0.0006318 W

      Execution Unit:
        Area = 23.098 mm^2
        Peak Dynamic = 22.2069 W
        Subthreshold Leakage = 5.94234 W
        Runtime Dynamic = 0.819781 W

          Register Files:
            Area = 9.35294 mm^2
            Peak Dynamic = 8.61065 W
            Subthreshold Leakage = 0.183607 W
            Gate Leakage = 0.00649419 W
            Runtime Dynamic = 0.0145519 W

              Integer RF:
                Area = 4.67647 mm^2
                Peak Dynamic = 6.91996 W
                Subthreshold Leakage = 0.0918036 W
                Gate Leakage = 0.00324709 W
                Runtime Dynamic = 0.0138792 W

              Floating Point RF:
                Area = 4.67647 mm^2
                Peak Dynamic = 1.69068 W
                Subthreshold Leakage = 0.0918036 W
                Gate Leakage = 0.00324709 W
                Runtime Dynamic = 0.000672698 W

          Instruction Scheduler:
            Area = 2.5025 mm^2
            Peak Dynamic = 4.84103 W
            Subthreshold Leakage = 0.100503 W
            Gate Leakage = 0.00390898 W
            Runtime Dynamic = 0.0445408 W

              Instruction Window:
                Area = 0.497673 mm^2
                Peak Dynamic = 1.50808 W
                Subthreshold Leakage = 0.0358961 W
                Gate Leakage = 0.00164666 W
                Runtime Dynamic = 0.0147772 W

              FP Instruction Window:
                Area = 0.138043 mm^2
                Peak Dynamic = 0.412321 W
                Subthreshold Leakage = 0.0178333 W
                Gate Leakage = 0.00084265 W
                Runtime Dynamic = 0.000538943 W

              ROB:
                Area = 1.86679 mm^2
                Peak Dynamic = 2.92063 W
                Subthreshold Leakage = 0.0467734 W
                Gate Leakage = 0.00141967 W
                Runtime Dynamic = 0.0292247 W

          Integer ALUs (Count: 6 ):
            Area = 0.672672 mm^2
            Peak Dynamic = 2.72514 W
            Subthreshold Leakage = 1.01603 W
            Gate Leakage = 0.0454759 W
            Runtime Dynamic = 0.124472 W

          Floating Point Units (FPUs) (Count: 2 ):
            Area = 9.71959 mm^2
            Peak Dynamic = 0.88336 W
            Subthreshold Leakage = 3.67022 W
            Gate Leakage = 0.164273 W
            Runtime Dynamic = 0.331133 W

          Complex ALUs (Mul/Div) (Count: 1 ):
            Area = 0.336336 mm^2
            Peak Dynamic = 0.327362 W
            Subthreshold Leakage = 0.508016 W
            Gate Leakage = 0.0227379 W
            Runtime Dynamic = 0.21939 W

          Results Broadcast Bus:
            Area Overhead = 0.0985999 mm^2
            Peak Dynamic = 3.37561 W
            Subthreshold Leakage = 0.241117 W
            Gate Leakage = 0.010792 W
            Runtime Dynamic = 0 W

*****************************************************************************************
Core:
      Area = 61.3493 mm^2
      Peak Dynamic = 44.2386 W
      Subthreshold Leakage = 17.5347 W
      Gate Leakage = 0.837564 W
      Runtime Dynamic = 1.06807 W

      Instruction Fetch Unit:
        Area = 12.8015 mm^2
        Peak Dynamic = 6.36544 W
        Subthreshold Leakage = 2.14624 W
        Gate Leakage = 0.0938309 W
        Runtime Dynamic = 0.0436364 W

          Instruction Cache:
            Area = 3.387 mm^2
            Peak Dynamic = 1.50753 W
            Subthreshold Leakage = 0.653302 W
            Gate Leakage = 0.026836 W
            Runtime Dynamic = 0.00145366 W

          Branch Target Buffer:
            Area = 0.929417 mm^2
            Peak Dynamic = 0.0843569 W
            Subthreshold Leakage = 0.0901849 W
            Gate Leakage = 0.00212441 W
            Runtime Dynamic = 0.00100262 W

          Branch Predictor:
            Area = 0.256492 mm^2
            Peak Dynamic = 0.0739778 W
            Subthreshold Leakage = 0.0552507 W
            Gate Leakage = 0.00144552 W
            Runtime Dynamic = 0.000292326 W

              Global Predictor:
                Area = 0.0856941 mm^2
                Peak Dynamic = 0.0191787 W
                Subthreshold Leakage = 0.0197055 W
                Gate Leakage = 0.000495847 W
                Runtime Dynamic = 8.65696e-05 W

              Local Predictor:
              L1_Local Predictor:
                Area = 0.0483655 mm^2
                Peak Dynamic = 0.0163721 W
                Subthreshold Leakage = 0.0100013 W
                Gate Leakage = 0.000280458 W
                Runtime Dynamic = 7.70692e-05 W

              L2_Local Predictor:
                Area = 0.0253579 mm^2
                Peak Dynamic = 0.00834565 W
                Subthreshold Leakage = 0.0050708 W
                Gate Leakage = 0.000147753 W
                Runtime Dynamic = 3.92885e-05 W

              Chooser:
                Area = 0.0856941 mm^2
                Peak Dynamic = 0.0191787 W
                Subthreshold Leakage = 0.0197055 W
                Gate Leakage = 0.000495847 W
                Runtime Dynamic = 8.65696e-05 W

              RAS:
                Area = 0.0113805 mm^2
                Peak Dynamic = 0.0109026 W
                Subthreshold Leakage = 0.000767647 W
                Gate Leakage = 2.56146e-05 W
                Runtime Dynamic = 2.82856e-06 W

          Instruction Buffer:
            Area = 0.0602122 mm^2
            Peak Dynamic = 1.67657 W
            Subthreshold Leakage = 0.00576253 W
            Gate Leakage = 0.00018516 W
            Runtime Dynamic = 0.00738603 W

          Instruction Decoder:
            Area = 7.75308 mm^2
            Peak Dynamic = 2.66207 W
            Subthreshold Leakage = 1.1189 W
            Gate Leakage = 0.0381395 W
            Runtime Dynamic = 0.0117276 W

      Renaming Unit:
        Area = 1.23784 mm^2
        Peak Dynamic = 8.24718 W
        Subthreshold Leakage = 0.236699 W
        Gate Leakage = 0.0255856 W
        Runtime Dynamic = 0.107397 W

          Int Front End RAT with 1 internal checkpoints:
            Area = 0.184722 mm^2
            Peak Dynamic = 5.14163 W
            Subthreshold Leakage = 0.00273136 W
            Gate Leakage = 0.000106646 W
            Runtime Dynamic = 0.0175099 W

          FP Front End RAT with 1 internal checkpoints:
            Area = 0.025747 mm^2
            Peak Dynamic = 1.25552 W
            Subthreshold Leakage = 0.000877353 W
            Gate Leakage = 5.24626e-05 W
            Runtime Dynamic = 0.00106256 W

          Free List:
            Area = 0.480797 mm^2
            Peak Dynamic = 0.251514 W
            Subthreshold Leakage = 0.00659346 W
            Gate Leakage = 0.000203822 W
            Runtime Dynamic = 0.00166475 W

          FP Free List:
            Area = 0.131231 mm^2
            Peak Dynamic = 0.154797 W
            Subthreshold Leakage = 0.00365632 W
            Gate Leakage = 0.000122342 W
            Runtime Dynamic = 6.36325e-05 W

      Load Store Unit:
        Area = 14.8953 mm^2
        Peak Dynamic = 6.43431 W
        Subthreshold Leakage = 2.53356 W
        Gate Leakage = 0.125582 W
        Runtime Dynamic = 0.0404341 W

          Data Cache:
            Area = 11.9681 mm^2
            Peak Dynamic = 5.56525 W
            Subthreshold Leakage = 2.16076 W
            Gate Leakage = 0.093823 W
            Runtime Dynamic = 0.00787679 W

          LoadQ:
            Area = 0.597754 mm^2
            Peak Dynamic = 0.254064 W
            Subthreshold Leakage = 0.0749804 W
            Gate Leakage = 0.00332956 W
            Runtime Dynamic = 0.00359439 W

          StoreQ:
            Area = 0.597754 mm^2
            Peak Dynamic = 0.254064 W
            Subthreshold Leakage = 0.0749804 W
            Gate Leakage = 0.00332956 W
            Runtime Dynamic = 0.00718879 W

      Memory Management Unit:
        Area = 0.85051 mm^2
        Peak Dynamic = 0.984785 W
        Subthreshold Leakage = 0.281996 W
        Runtime Dynamic = 0.0550696 W

          Itlb:
            Area = 0.104115 mm^2
            Peak Dynamic = 0.0198463 W
            Subthreshold Leakage = 0.0168404 W
            Gate Leakage = 0.000696321 W
            Runtime Dynamic = 0 W

          Dtlb:
            Area = 0.331051 mm^2
            Peak Dynamic = 0.0626126 W
            Subthreshold Leakage = 0.0423145 W
            Gate Leakage = 0.00180917 W
            Runtime Dynamic = 0.00063423 W

      Execution Unit:
        Area = 23.098 mm^2
        Peak Dynamic = 22.2069 W
        Subthreshold Leakage = 5.94234 W
        Runtime Dynamic = 0.821529 W

          Register Files:
            Area = 9.35294 mm^2
            Peak Dynamic = 8.61065 W
            Subthreshold Leakage = 0.183607 W
            Gate Leakage = 0.00649419 W
            Runtime Dynamic = 0.0145556 W

              Integer RF:
                Area = 4.67647 mm^2
                Peak Dynamic = 6.91996 W
                Subthreshold Leakage = 0.0918036 W
                Gate Leakage = 0.00324709 W
                Runtime Dynamic = 0.0138898 W

              Floating Point RF:
                Area = 4.67647 mm^2
                Peak Dynamic = 1.69068 W
                Subthreshold Leakage = 0.0918036 W
                Gate Leakage = 0.00324709 W
                Runtime Dynamic = 0.000665846 W

          Instruction Scheduler:
            Area = 2.5025 mm^2
            Peak Dynamic = 4.84103 W
            Subthreshold Leakage = 0.100503 W
            Gate Leakage = 0.00390898 W
            Runtime Dynamic = 0.0448852 W

              Instruction Window:
                Area = 0.497673 mm^2
                Peak Dynamic = 1.50808 W
                Subthreshold Leakage = 0.0358961 W
                Gate Leakage = 0.00164666 W
                Runtime Dynamic = 0.0149348 W

              FP Instruction Window:
                Area = 0.138043 mm^2
                Peak Dynamic = 0.412321 W
                Subthreshold Leakage = 0.0178333 W
                Gate Leakage = 0.00084265 W
                Runtime Dynamic = 0.000534167 W

              ROB:
                Area = 1.86679 mm^2
                Peak Dynamic = 2.92063 W
                Subthreshold Leakage = 0.0467734 W
                Gate Leakage = 0.00141967 W
                Runtime Dynamic = 0.0294163 W

          Integer ALUs (Count: 6 ):
            Area = 0.672672 mm^2
            Peak Dynamic = 2.72514 W
            Subthreshold Leakage = 1.01603 W
            Gate Leakage = 0.0454759 W
            Runtime Dynamic = 0.124484 W

          Floating Point Units (FPUs) (Count: 2 ):
            Area = 9.71959 mm^2
            Peak Dynamic = 0.88336 W
            Subthreshold Leakage = 3.67022 W
            Gate Leakage = 0.164273 W
            Runtime Dynamic = 0.331117 W

          Complex ALUs (Mul/Div) (Count: 1 ):
            Area = 0.336336 mm^2
            Peak Dynamic = 0.327362 W
            Subthreshold Leakage = 0.508016 W
            Gate Leakage = 0.0227379 W
            Runtime Dynamic = 0.21939 W

          Results Broadcast Bus:
            Area Overhead = 0.0985999 mm^2
            Peak Dynamic = 3.37561 W
            Subthreshold Leakage = 0.241117 W
            Gate Leakage = 0.010792 W
            Runtime Dynamic = 0 W

*****************************************************************************************
Core:
      Area = 61.3493 mm^2
      Peak Dynamic = 44.2386 W
      Subthreshold Leakage = 17.5347 W
      Gate Leakage = 0.837564 W
      Runtime Dynamic = 1.06782 W

      Instruction Fetch Unit:
        Area = 12.8015 mm^2
        Peak Dynamic = 6.36544 W
        Subthreshold Leakage = 2.14624 W
        Gate Leakage = 0.0938309 W
        Runtime Dynamic = 0.0436317 W

          Instruction Cache:
            Area = 3.387 mm^2
            Peak Dynamic = 1.50753 W
            Subthreshold Leakage = 0.653302 W
            Gate Leakage = 0.026836 W
            Runtime Dynamic = 0.00145416 W

          Branch Target Buffer:
            Area = 0.929417 mm^2
            Peak Dynamic = 0.0843569 W
            Subthreshold Leakage = 0.0901849 W
            Gate Leakage = 0.00212441 W
            Runtime Dynamic = 0.00100241 W

          Branch Predictor:
            Area = 0.256492 mm^2
            Peak Dynamic = 0.0739778 W
            Subthreshold Leakage = 0.0552507 W
            Gate Leakage = 0.00144552 W
            Runtime Dynamic = 0.000292147 W

              Global Predictor:
                Area = 0.0856941 mm^2
                Peak Dynamic = 0.0191787 W
                Subthreshold Leakage = 0.0197055 W
                Gate Leakage = 0.000495847 W
                Runtime Dynamic = 8.65137e-05 W

              Local Predictor:
              L1_Local Predictor:
                Area = 0.0483655 mm^2
                Peak Dynamic = 0.0163721 W
                Subthreshold Leakage = 0.0100013 W
                Gate Leakage = 0.000280458 W
                Runtime Dynamic = 7.70249e-05 W

              L2_Local Predictor:
                Area = 0.0253579 mm^2
                Peak Dynamic = 0.00834565 W
                Subthreshold Leakage = 0.0050708 W
                Gate Leakage = 0.000147753 W
                Runtime Dynamic = 3.92659e-05 W

              Chooser:
                Area = 0.0856941 mm^2
                Peak Dynamic = 0.0191787 W
                Subthreshold Leakage = 0.0197055 W
                Gate Leakage = 0.000495847 W
                Runtime Dynamic = 8.65137e-05 W

              RAS:
                Area = 0.0113805 mm^2
                Peak Dynamic = 0.0109026 W
                Subthreshold Leakage = 0.000767647 W
                Gate Leakage = 2.56146e-05 W
                Runtime Dynamic = 2.82856e-06 W

          Instruction Buffer:
            Area = 0.0602122 mm^2
            Peak Dynamic = 1.67657 W
            Subthreshold Leakage = 0.00576253 W
            Gate Leakage = 0.00018516 W
            Runtime Dynamic = 0.00738143 W

          Instruction Decoder:
            Area = 7.75308 mm^2
            Peak Dynamic = 2.66207 W
            Subthreshold Leakage = 1.1189 W
            Gate Leakage = 0.0381395 W
            Runtime Dynamic = 0.0117203 W

      Renaming Unit:
        Area = 1.23784 mm^2
        Peak Dynamic = 8.24718 W
        Subthreshold Leakage = 0.236699 W
        Gate Leakage = 0.0255856 W
        Runtime Dynamic = 0.107374 W

          Int Front End RAT with 1 internal checkpoints:
            Area = 0.184722 mm^2
            Peak Dynamic = 5.14163 W
            Subthreshold Leakage = 0.00273136 W
            Gate Leakage = 0.000106646 W
            Runtime Dynamic = 0.0174654 W

          FP Front End RAT with 1 internal checkpoints:
            Area = 0.025747 mm^2
            Peak Dynamic = 1.25552 W
            Subthreshold Leakage = 0.000877353 W
            Gate Leakage = 5.24626e-05 W
            Runtime Dynamic = 0.00105963 W

          Free List:
            Area = 0.480797 mm^2
            Peak Dynamic = 0.251514 W
            Subthreshold Leakage = 0.00659346 W
            Gate Leakage = 0.000203822 W
            Runtime Dynamic = 0.0016608 W

          FP Free List:
            Area = 0.131231 mm^2
            Peak Dynamic = 0.154797 W
            Subthreshold Leakage = 0.00365632 W
            Gate Leakage = 0.000122342 W
            Runtime Dynamic = 6.34664e-05 W

      Load Store Unit:
        Area = 14.8953 mm^2
        Peak Dynamic = 6.43431 W
        Subthreshold Leakage = 2.53356 W
        Gate Leakage = 0.125582 W
        Runtime Dynamic = 0.0404028 W

          Data Cache:
            Area = 11.9681 mm^2
            Peak Dynamic = 5.56525 W
            Subthreshold Leakage = 2.16076 W
            Gate Leakage = 0.093823 W
            Runtime Dynamic = 0.00784684 W

          LoadQ:
            Area = 0.597754 mm^2
            Peak Dynamic = 0.254064 W
            Subthreshold Leakage = 0.0749804 W
            Gate Leakage = 0.00332956 W
            Runtime Dynamic = 0.00359156 W

          StoreQ:
            Area = 0.597754 mm^2
            Peak Dynamic = 0.254064 W
            Subthreshold Leakage = 0.0749804 W
            Gate Leakage = 0.00332956 W
            Runtime Dynamic = 0.00718311 W

      Memory Management Unit:
        Area = 0.85051 mm^2
        Peak Dynamic = 0.984785 W
        Subthreshold Leakage = 0.281996 W
        Runtime Dynamic = 0.0550852 W

          Itlb:
            Area = 0.104115 mm^2
            Peak Dynamic = 0.0198463 W
            Subthreshold Leakage = 0.0168404 W
            Gate Leakage = 0.000696321 W
            Runtime Dynamic = 0 W

          Dtlb:
            Area = 0.331051 mm^2
            Peak Dynamic = 0.0626126 W
            Subthreshold Leakage = 0.0423145 W
            Gate Leakage = 0.00180917 W
            Runtime Dynamic = 0.000631985 W

      Execution Unit:
        Area = 23.098 mm^2
        Peak Dynamic = 22.2069 W
        Subthreshold Leakage = 5.94234 W
        Runtime Dynamic = 0.821326 W

          Register Files:
            Area = 9.35294 mm^2
            Peak Dynamic = 8.61065 W
            Subthreshold Leakage = 0.183607 W
            Gate Leakage = 0.00649419 W
            Runtime Dynamic = 0.0145385 W

              Integer RF:
                Area = 4.67647 mm^2
                Peak Dynamic = 6.91996 W
                Subthreshold Leakage = 0.0918036 W
                Gate Leakage = 0.00324709 W
                Runtime Dynamic = 0.0138701 W

              Floating Point RF:
                Area = 4.67647 mm^2
                Peak Dynamic = 1.69068 W
                Subthreshold Leakage = 0.0918036 W
                Gate Leakage = 0.00324709 W
                Runtime Dynamic = 0.000668464 W

          Instruction Scheduler:
            Area = 2.5025 mm^2
            Peak Dynamic = 4.84103 W
            Subthreshold Leakage = 0.100503 W
            Gate Leakage = 0.00390898 W
            Runtime Dynamic = 0.0446748 W

              Instruction Window:
                Area = 0.497673 mm^2
                Peak Dynamic = 1.50808 W
                Subthreshold Leakage = 0.0358961 W
                Gate Leakage = 0.00164666 W
                Runtime Dynamic = 0.0148541 W

              FP Instruction Window:
                Area = 0.138043 mm^2
                Peak Dynamic = 0.412321 W
                Subthreshold Leakage = 0.0178333 W
                Gate Leakage = 0.00084265 W
                Runtime Dynamic = 0.000533922 W

              ROB:
                Area = 1.86679 mm^2
                Peak Dynamic = 2.92063 W
                Subthreshold Leakage = 0.0467734 W
                Gate Leakage = 0.00141967 W
                Runtime Dynamic = 0.0292868 W

          Integer ALUs (Count: 6 ):
            Area = 0.672672 mm^2
            Peak Dynamic = 2.72514 W
            Subthreshold Leakage = 1.01603 W
            Gate Leakage = 0.0454759 W
            Runtime Dynamic = 0.124475 W

          Floating Point Units (FPUs) (Count: 2 ):
            Area = 9.71959 mm^2
            Peak Dynamic = 0.88336 W
            Subthreshold Leakage = 3.67022 W
            Gate Leakage = 0.164273 W
            Runtime Dynamic = 0.331122 W

          Complex ALUs (Mul/Div) (Count: 1 ):
            Area = 0.336336 mm^2
            Peak Dynamic = 0.327362 W
            Subthreshold Leakage = 0.508016 W
            Gate Leakage = 0.0227379 W
            Runtime Dynamic = 0.21939 W

          Results Broadcast Bus:
            Area Overhead = 0.0985999 mm^2
            Peak Dynamic = 3.37561 W
            Subthreshold Leakage = 0.241117 W
            Gate Leakage = 0.010792 W
            Runtime Dynamic = 0 W

*****************************************************************************************
Core:
      Area = 61.3493 mm^2
      Peak Dynamic = 44.2386 W
      Subthreshold Leakage = 17.5347 W
      Gate Leakage = 0.837564 W
      Runtime Dynamic = 1.06389 W

      Instruction Fetch Unit:
        Area = 12.8015 mm^2
        Peak Dynamic = 6.36544 W
        Subthreshold Leakage = 2.14624 W
        Gate Leakage = 0.0938309 W
        Runtime Dynamic = 0.0433485 W

          Instruction Cache:
            Area = 3.387 mm^2
            Peak Dynamic = 1.50753 W
            Subthreshold Leakage = 0.653302 W
            Gate Leakage = 0.026836 W
            Runtime Dynamic = 0.0014617 W

          Branch Target Buffer:
            Area = 0.929417 mm^2
            Peak Dynamic = 0.0843569 W
            Subthreshold Leakage = 0.0901849 W
            Gate Leakage = 0.00212441 W
            Runtime Dynamic = 0.00100438 W

          Branch Predictor:
            Area = 0.256492 mm^2
            Peak Dynamic = 0.0739778 W
            Subthreshold Leakage = 0.0552507 W
            Gate Leakage = 0.00144552 W
            Runtime Dynamic = 0.000293578 W

              Global Predictor:
                Area = 0.0856941 mm^2
                Peak Dynamic = 0.0191787 W
                Subthreshold Leakage = 0.0197055 W
                Gate Leakage = 0.000495847 W
                Runtime Dynamic = 8.6947e-05 W

              Local Predictor:
              L1_Local Predictor:
                Area = 0.0483655 mm^2
                Peak Dynamic = 0.0163721 W
                Subthreshold Leakage = 0.0100013 W
                Gate Leakage = 0.000280458 W
                Runtime Dynamic = 7.73986e-05 W

              L2_Local Predictor:
                Area = 0.0253579 mm^2
                Peak Dynamic = 0.00834565 W
                Subthreshold Leakage = 0.0050708 W
                Gate Leakage = 0.000147753 W
                Runtime Dynamic = 3.94565e-05 W

              Chooser:
                Area = 0.0856941 mm^2
                Peak Dynamic = 0.0191787 W
                Subthreshold Leakage = 0.0197055 W
                Gate Leakage = 0.000495847 W
                Runtime Dynamic = 8.6947e-05 W

              RAS:
                Area = 0.0113805 mm^2
                Peak Dynamic = 0.0109026 W
                Subthreshold Leakage = 0.000767647 W
                Gate Leakage = 2.56146e-05 W
                Runtime Dynamic = 2.82856e-06 W

          Instruction Buffer:
            Area = 0.0602122 mm^2
            Peak Dynamic = 1.67657 W
            Subthreshold Leakage = 0.00576253 W
            Gate Leakage = 0.00018516 W
            Runtime Dynamic = 0.00740541 W

          Instruction Decoder:
            Area = 7.75308 mm^2
            Peak Dynamic = 2.66207 W
            Subthreshold Leakage = 1.1189 W
            Gate Leakage = 0.0381395 W
            Runtime Dynamic = 0.0117584 W

      Renaming Unit:
        Area = 1.23784 mm^2
        Peak Dynamic = 8.24718 W
        Subthreshold Leakage = 0.236699 W
        Gate Leakage = 0.0255856 W
        Runtime Dynamic = 0.106042 W

          Int Front End RAT with 1 internal checkpoints:
            Area = 0.184722 mm^2
            Peak Dynamic = 5.14163 W
            Subthreshold Leakage = 0.00273136 W
            Gate Leakage = 0.000106646 W
            Runtime Dynamic = 0.0175463 W

          FP Front End RAT with 1 internal checkpoints:
            Area = 0.025747 mm^2
            Peak Dynamic = 1.25552 W
            Subthreshold Leakage = 0.000877353 W
            Gate Leakage = 5.24626e-05 W
            Runtime Dynamic = 0.00106301 W

          Free List:
            Area = 0.480797 mm^2
            Peak Dynamic = 0.251514 W
            Subthreshold Leakage = 0.00659346 W
            Gate Leakage = 0.000203822 W
            Runtime Dynamic = 0.00166828 W

          FP Free List:
            Area = 0.131231 mm^2
            Peak Dynamic = 0.154797 W
            Subthreshold Leakage = 0.00365632 W
            Gate Leakage = 0.000122342 W
            Runtime Dynamic = 6.36599e-05 W

      Load Store Unit:
        Area = 14.8953 mm^2
        Peak Dynamic = 6.43431 W
        Subthreshold Leakage = 2.53356 W
        Gate Leakage = 0.125582 W
        Runtime Dynamic = 0.040128 W

          Data Cache:
            Area = 11.9681 mm^2
            Peak Dynamic = 5.56525 W
            Subthreshold Leakage = 2.16076 W
            Gate Leakage = 0.093823 W
            Runtime Dynamic = 0.00788227 W

          LoadQ:
            Area = 0.597754 mm^2
            Peak Dynamic = 0.254064 W
            Subthreshold Leakage = 0.0749804 W
            Gate Leakage = 0.00332956 W
            Runtime Dynamic = 0.00360687 W

          StoreQ:
            Area = 0.597754 mm^2
            Peak Dynamic = 0.254064 W
            Subthreshold Leakage = 0.0749804 W
            Gate Leakage = 0.00332956 W
            Runtime Dynamic = 0.00721374 W

      Memory Management Unit:
        Area = 0.85051 mm^2
        Peak Dynamic = 0.984785 W
        Subthreshold Leakage = 0.281996 W
        Runtime Dynamic = 0.0541967 W

          Itlb:
            Area = 0.104115 mm^2
            Peak Dynamic = 0.0198463 W
            Subthreshold Leakage = 0.0168404 W
            Gate Leakage = 0.000696321 W
            Runtime Dynamic = 0 W

          Dtlb:
            Area = 0.331051 mm^2
            Peak Dynamic = 0.0626126 W
            Subthreshold Leakage = 0.0423145 W
            Gate Leakage = 0.00180917 W
            Runtime Dynamic = 0.000633865 W

      Execution Unit:
        Area = 23.098 mm^2
        Peak Dynamic = 22.2069 W
        Subthreshold Leakage = 5.94234 W
        Runtime Dynamic = 0.820172 W

          Register Files:
            Area = 9.35294 mm^2
            Peak Dynamic = 8.61065 W
            Subthreshold Leakage = 0.183607 W
            Gate Leakage = 0.00649419 W
            Runtime Dynamic = 0.014576 W

              Integer RF:
                Area = 4.67647 mm^2
                Peak Dynamic = 6.91996 W
                Subthreshold Leakage = 0.0918036 W
                Gate Leakage = 0.00324709 W
                Runtime Dynamic = 0.0139128 W

              Floating Point RF:
                Area = 4.67647 mm^2
                Peak Dynamic = 1.69068 W
                Subthreshold Leakage = 0.0918036 W
                Gate Leakage = 0.00324709 W
                Runtime Dynamic = 0.000663188 W

          Instruction Scheduler:
            Area = 2.5025 mm^2
            Peak Dynamic = 4.84103 W
            Subthreshold Leakage = 0.100503 W
            Gate Leakage = 0.00390898 W
            Runtime Dynamic = 0.0448628 W

              Instruction Window:
                Area = 0.497673 mm^2
                Peak Dynamic = 1.50808 W
                Subthreshold Leakage = 0.0358961 W
                Gate Leakage = 0.00164666 W
                Runtime Dynamic = 0.0149009 W

              FP Instruction Window:
                Area = 0.138043 mm^2
                Peak Dynamic = 0.412321 W
                Subthreshold Leakage = 0.0178333 W
                Gate Leakage = 0.00084265 W
                Runtime Dynamic = 0.000536118 W

              ROB:
                Area = 1.86679 mm^2
                Peak Dynamic = 2.92063 W
                Subthreshold Leakage = 0.0467734 W
                Gate Leakage = 0.00141967 W
                Runtime Dynamic = 0.0294258 W

          Integer ALUs (Count: 6 ):
            Area = 0.672672 mm^2
            Peak Dynamic = 2.72514 W
            Subthreshold Leakage = 1.01603 W
            Gate Leakage = 0.0454759 W
            Runtime Dynamic = 0.124524 W

          Floating Point Units (FPUs) (Count: 2 ):
            Area = 9.71959 mm^2
            Peak Dynamic = 0.88336 W
            Subthreshold Leakage = 3.67022 W
            Gate Leakage = 0.164273 W
            Runtime Dynamic = 0.331118 W

          Complex ALUs (Mul/Div) (Count: 1 ):
            Area = 0.336336 mm^2
            Peak Dynamic = 0.327362 W
            Subthreshold Leakage = 0.508016 W
            Gate Leakage = 0.0227379 W
            Runtime Dynamic = 0.21939 W

          Results Broadcast Bus:
            Area Overhead = 0.0985999 mm^2
            Peak Dynamic = 3.37561 W
            Subthreshold Leakage = 0.241117 W
            Gate Leakage = 0.010792 W
            Runtime Dynamic = 0 W

*****************************************************************************************
Core:
      Area = 61.3493 mm^2
      Peak Dynamic = 44.2386 W
      Subthreshold Leakage = 17.5347 W
      Gate Leakage = 0.837564 W
      Runtime Dynamic = 1.06818 W

      Instruction Fetch Unit:
        Area = 12.8015 mm^2
        Peak Dynamic = 6.36544 W
        Subthreshold Leakage = 2.14624 W
        Gate Leakage = 0.0938309 W
        Runtime Dynamic = 0.0436956 W

          Instruction Cache:
            Area = 3.387 mm^2
            Peak Dynamic = 1.50753 W
            Subthreshold Leakage = 0.653302 W
            Gate Leakage = 0.026836 W
            Runtime Dynamic = 0.00146728 W

          Branch Target Buffer:
            Area = 0.929417 mm^2
            Peak Dynamic = 0.0843569 W
            Subthreshold Leakage = 0.0901849 W
            Gate Leakage = 0.00212441 W
            Runtime Dynamic = 0.00100405 W

          Branch Predictor:
            Area = 0.256492 mm^2
            Peak Dynamic = 0.0739778 W
            Subthreshold Leakage = 0.0552507 W
            Gate Leakage = 0.00144552 W
            Runtime Dynamic = 0.000293227 W

              Global Predictor:
                Area = 0.0856941 mm^2
                Peak Dynamic = 0.0191787 W
                Subthreshold Leakage = 0.0197055 W
                Gate Leakage = 0.000495847 W
                Runtime Dynamic = 8.68369e-05 W

              Local Predictor:
              L1_Local Predictor:
                Area = 0.0483655 mm^2
                Peak Dynamic = 0.0163721 W
                Subthreshold Leakage = 0.0100013 W
                Gate Leakage = 0.000280458 W
                Runtime Dynamic = 7.7312e-05 W

              L2_Local Predictor:
                Area = 0.0253579 mm^2
                Peak Dynamic = 0.00834565 W
                Subthreshold Leakage = 0.0050708 W
                Gate Leakage = 0.000147753 W
                Runtime Dynamic = 3.94123e-05 W

              Chooser:
                Area = 0.0856941 mm^2
                Peak Dynamic = 0.0191787 W
                Subthreshold Leakage = 0.0197055 W
                Gate Leakage = 0.000495847 W
                Runtime Dynamic = 8.68369e-05 W

              RAS:
                Area = 0.0113805 mm^2
                Peak Dynamic = 0.0109026 W
                Subthreshold Leakage = 0.000767647 W
                Gate Leakage = 2.56146e-05 W
                Runtime Dynamic = 2.82856e-06 W

          Instruction Buffer:
            Area = 0.0602122 mm^2
            Peak Dynamic = 1.67657 W
            Subthreshold Leakage = 0.00576253 W
            Gate Leakage = 0.00018516 W
            Runtime Dynamic = 0.00740206 W

          Instruction Decoder:
            Area = 7.75308 mm^2
            Peak Dynamic = 2.66207 W
            Subthreshold Leakage = 1.1189 W
            Gate Leakage = 0.0381395 W
            Runtime Dynamic = 0.011753 W

      Renaming Unit:
        Area = 1.23784 mm^2
        Peak Dynamic = 8.24718 W
        Subthreshold Leakage = 0.236699 W
        Gate Leakage = 0.0255856 W
        Runtime Dynamic = 0.107433 W

          Int Front End RAT with 1 internal checkpoints:
            Area = 0.184722 mm^2
            Peak Dynamic = 5.14163 W
            Subthreshold Leakage = 0.00273136 W
[...]
            Runtime Dynamic = 0.0514583 W

              Integer RF:
                Area = 4.67647 mm^2
                Peak Dynamic = 6.91996 W
                Subthreshold Leakage = 0.0918036 W
                Gate Leakage = 0.00324709 W
                Runtime Dynamic = 0.0374246 W

              Floating Point RF:
                Area = 4.67647 mm^2
                Peak Dynamic = 1.69068 W
                Subthreshold Leakage = 0.0918036 W
                Gate Leakage = 0.00324709 W
                Runtime Dynamic = 0.0140338 W

          Instruction Scheduler:
            Area = 2.5025 mm^2
            Peak Dynamic = 4.84103 W
            Subthreshold Leakage = 0.100503 W
            Gate Leakage = 0.00390898 W
            Runtime Dynamic = 0.120877 W

              Instruction Window:
                Area = 0.497673 mm^2
                Peak Dynamic = 1.50808 W
                Subthreshold Leakage = 0.0358961 W
                Gate Leakage = 0.00164666 W
                Runtime Dynamic = 0.0321237 W

              FP Instruction Window:
                Area = 0.138043 mm^2
                Peak Dynamic = 0.412321 W
                Subthreshold Leakage = 0.0178333 W
                Gate Leakage = 0.00084265 W
                Runtime Dynamic = 0.00754277 W

              ROB:
                Area = 1.86679 mm^2
                Peak Dynamic = 2.92063 W
                Subthreshold Leakage = 0.0467734 W
                Gate Leakage = 0.00141967 W
                Runtime Dynamic = 0.0812109 W

          Integer ALUs (Count: 6 ):
            Area = 0.672672 mm^2
            Peak Dynamic = 2.72514 W
            Subthreshold Leakage = 1.01603 W
            Gate Leakage = 0.0454759 W
            Runtime Dynamic = 0.146477 W

          Floating Point Units (FPUs) (Count: 2 ):
            Area = 9.71959 mm^2
            Peak Dynamic = 0.88336 W
            Subthreshold Leakage = 3.67022 W
            Gate Leakage = 0.164273 W
            Runtime Dynamic = 0.369196 W

          Complex ALUs (Mul/Div) (Count: 1 ):
            Area = 0.336336 mm^2
            Peak Dynamic = 0.327362 W
            Subthreshold Leakage = 0.508016 W
            Gate Leakage = 0.0227379 W
            Runtime Dynamic = 0.21939 W

          Results Broadcast Bus:
            Area Overhead = 0.0985999 mm^2
            Peak Dynamic = 3.37561 W
            Subthreshold Leakage = 0.241117 W
            Gate Leakage = 0.010792 W
            Runtime Dynamic = 0 W

*****************************************************************************************
Core:
      Area = 61.3493 mm^2
      Peak Dynamic = 44.2386 W
      Subthreshold Leakage = 17.5347 W
      Gate Leakage = 0.837564 W
      Runtime Dynamic = 1.46292 W

      Instruction Fetch Unit:
        Area = 12.8015 mm^2
        Peak Dynamic = 6.36544 W
        Subthreshold Leakage = 2.14624 W
        Gate Leakage = 0.0938309 W
        Runtime Dynamic = 0.0983145 W

          Instruction Cache:
            Area = 3.387 mm^2
            Peak Dynamic = 1.50753 W
            Subthreshold Leakage = 0.653302 W
            Gate Leakage = 0.026836 W
            Runtime Dynamic = 0.00350002 W

          Branch Target Buffer:
            Area = 0.929417 mm^2
            Peak Dynamic = 0.0843569 W
            Subthreshold Leakage = 0.0901849 W
            Gate Leakage = 0.00212441 W
            Runtime Dynamic = 0.00189675 W

          Branch Predictor:
            Area = 0.256492 mm^2
            Peak Dynamic = 0.0739778 W
            Subthreshold Leakage = 0.0552507 W
            Gate Leakage = 0.00144552 W
            Runtime Dynamic = 0.000460261 W

              Global Predictor:
                Area = 0.0856941 mm^2
                Peak Dynamic = 0.0191787 W
                Subthreshold Leakage = 0.0197055 W
                Gate Leakage = 0.000495847 W
                Runtime Dynamic = 0.000135237 W

              Local Predictor:
              L1_Local Predictor:
                Area = 0.0483655 mm^2
                Peak Dynamic = 0.0163721 W
                Subthreshold Leakage = 0.0100013 W
                Gate Leakage = 0.000280458 W
                Runtime Dynamic = 0.000120071 W

              L2_Local Predictor:
                Area = 0.0253579 mm^2
                Peak Dynamic = 0.00834565 W
                Subthreshold Leakage = 0.0050708 W
                Gate Leakage = 0.000147753 W
                Runtime Dynamic = 6.121e-05 W

              Chooser:
                Area = 0.0856941 mm^2
                Peak Dynamic = 0.0191787 W
                Subthreshold Leakage = 0.0197055 W
                Gate Leakage = 0.000495847 W
                Runtime Dynamic = 0.000135237 W

              RAS:
                Area = 0.0113805 mm^2
                Peak Dynamic = 0.0109026 W
                Subthreshold Leakage = 0.000767647 W
                Gate Leakage = 2.56146e-05 W
                Runtime Dynamic = 8.50546e-06 W

          Instruction Buffer:
            Area = 0.0602122 mm^2
            Peak Dynamic = 1.67657 W
            Subthreshold Leakage = 0.00576253 W
            Gate Leakage = 0.00018516 W
            Runtime Dynamic = 0.0241118 W

          Instruction Decoder:
            Area = 7.75308 mm^2
            Peak Dynamic = 2.66207 W
            Subthreshold Leakage = 1.1189 W
            Gate Leakage = 0.0381395 W
            Runtime Dynamic = 0.0382849 W

      Renaming Unit:
        Area = 1.23784 mm^2
        Peak Dynamic = 8.24718 W
        Subthreshold Leakage = 0.236699 W
        Gate Leakage = 0.0255856 W
        Runtime Dynamic = 0.179343 W

          Int Front End RAT with 1 internal checkpoints:
            Area = 0.184722 mm^2
            Peak Dynamic = 5.14163 W
            Subthreshold Leakage = 0.00273136 W
            Gate Leakage = 0.000106646 W
            Runtime Dynamic = 0.0413916 W

          FP Front End RAT with 1 internal checkpoints:
            Area = 0.025747 mm^2
            Peak Dynamic = 1.25552 W
            Subthreshold Leakage = 0.000877353 W
            Gate Leakage = 5.24626e-05 W
            Runtime Dynamic = 0.0128697 W

          Free List:
            Area = 0.480797 mm^2
            Peak Dynamic = 0.251514 W
            Subthreshold Leakage = 0.00659346 W
            Gate Leakage = 0.000203822 W
            Runtime Dynamic = 0.00404593 W

          FP Free List:
            Area = 0.131231 mm^2
            Peak Dynamic = 0.154797 W
            Subthreshold Leakage = 0.00365632 W
            Gate Leakage = 0.000122342 W
            Runtime Dynamic = 0.000792451 W

      Load Store Unit:
        Area = 14.8953 mm^2
        Peak Dynamic = 6.43431 W
        Subthreshold Leakage = 2.53356 W
        Gate Leakage = 0.125582 W
        Runtime Dynamic = 0.0798499 W

          Data Cache:
            Area = 11.9681 mm^2
            Peak Dynamic = 5.56525 W
            Subthreshold Leakage = 2.16076 W
            Gate Leakage = 0.093823 W
            Runtime Dynamic = 0.0241191 W

          LoadQ:
            Area = 0.597754 mm^2
            Peak Dynamic = 0.254064 W
            Subthreshold Leakage = 0.0749804 W
            Gate Leakage = 0.00332956 W
            Runtime Dynamic = 0.00855669 W

          StoreQ:
            Area = 0.597754 mm^2
            Peak Dynamic = 0.254064 W
            Subthreshold Leakage = 0.0749804 W
            Gate Leakage = 0.00332956 W
            Runtime Dynamic = 0.0171134 W

      Memory Management Unit:
        Area = 0.85051 mm^2
        Peak Dynamic = 0.984785 W
        Subthreshold Leakage = 0.281996 W
        Runtime Dynamic = 0.0775617 W

          Itlb:
            Area = 0.104115 mm^2
            Peak Dynamic = 0.0198463 W
            Subthreshold Leakage = 0.0168404 W
            Gate Leakage = 0.000696321 W
            Runtime Dynamic = 0 W

          Dtlb:
            Area = 0.331051 mm^2
            Peak Dynamic = 0.0626126 W
            Subthreshold Leakage = 0.0423145 W
            Gate Leakage = 0.00180917 W
            Runtime Dynamic = 0.00240993 W

      Execution Unit:
        Area = 23.098 mm^2
        Peak Dynamic = 22.2069 W
        Subthreshold Leakage = 5.94234 W
        Runtime Dynamic = 1.02785 W

          Register Files:
            Area = 9.35294 mm^2
            Peak Dynamic = 8.61065 W
            Subthreshold Leakage = 0.183607 W
            Gate Leakage = 0.00649419 W
            Runtime Dynamic = 0.0514706 W

              Integer RF:
                Area = 4.67647 mm^2
                Peak Dynamic = 6.91996 W
                Subthreshold Leakage = 0.0918036 W
                Gate Leakage = 0.00324709 W
                Runtime Dynamic = 0.0374328 W

              Floating Point RF:
                Area = 4.67647 mm^2
                Peak Dynamic = 1.69068 W
                Subthreshold Leakage = 0.0918036 W
                Gate Leakage = 0.00324709 W
                Runtime Dynamic = 0.0140378 W

          Instruction Scheduler:
            Area = 2.5025 mm^2
            Peak Dynamic = 4.84103 W
            Subthreshold Leakage = 0.100503 W
            Gate Leakage = 0.00390898 W
            Runtime Dynamic = 0.121045 W

              Instruction Window:
                Area = 0.497673 mm^2
                Peak Dynamic = 1.50808 W
                Subthreshold Leakage = 0.0358961 W
                Gate Leakage = 0.00164666 W
                Runtime Dynamic = 0.0321747 W

              FP Instruction Window:
                Area = 0.138043 mm^2
                Peak Dynamic = 0.412321 W
                Subthreshold Leakage = 0.0178333 W
                Gate Leakage = 0.00084265 W
                Runtime Dynamic = 0.00754626 W

              ROB:
                Area = 1.86679 mm^2
                Peak Dynamic = 2.92063 W
                Subthreshold Leakage = 0.0467734 W
                Gate Leakage = 0.00141967 W
                Runtime Dynamic = 0.0813236 W

          Integer ALUs (Count: 6 ):
            Area = 0.672672 mm^2
            Peak Dynamic = 2.72514 W
            Subthreshold Leakage = 1.01603 W
            Gate Leakage = 0.0454759 W
            Runtime Dynamic = 0.146494 W

          Floating Point Units (FPUs) (Count: 2 ):
            Area = 9.71959 mm^2
            Peak Dynamic = 0.88336 W
            Subthreshold Leakage = 3.67022 W
            Gate Leakage = 0.164273 W
            Runtime Dynamic = 0.36921 W

          Complex ALUs (Mul/Div) (Count: 1 ):
            Area = 0.336336 mm^2
            Peak Dynamic = 0.327362 W
            Subthreshold Leakage = 0.508016 W
            Gate Leakage = 0.0227379 W
            Runtime Dynamic = 0.21939 W

          Results Broadcast Bus:
            Area Overhead = 0.0985999 mm^2
            Peak Dynamic = 3.37561 W
            Subthreshold Leakage = 0.241117 W
            Gate Leakage = 0.010792 W
            Runtime Dynamic = 0 W

*****************************************************************************************
Core:
      Area = 61.3493 mm^2
      Peak Dynamic = 44.2386 W
      Subthreshold Leakage = 17.5347 W
      Gate Leakage = 0.837564 W
      Runtime Dynamic = 1.08058 W

      Instruction Fetch Unit:
        Area = 12.8015 mm^2
        Peak Dynamic = 6.36544 W
        Subthreshold Leakage = 2.14624 W
        Gate Leakage = 0.0938309 W
        Runtime Dynamic = 0.0455538 W

          Instruction Cache:
            Area = 3.387 mm^2
            Peak Dynamic = 1.50753 W
            Subthreshold Leakage = 0.653302 W
            Gate Leakage = 0.026836 W
            Runtime Dynamic = 0.00150691 W

          Branch Target Buffer:
            Area = 0.929417 mm^2
            Peak Dynamic = 0.0843569 W
            Subthreshold Leakage = 0.0901849 W
            Gate Leakage = 0.00212441 W
            Runtime Dynamic = 0.000945215 W

          Branch Predictor:
            Area = 0.256492 mm^2
            Peak Dynamic = 0.0739778 W
            Subthreshold Leakage = 0.0552507 W
            Gate Leakage = 0.00144552 W
            Runtime Dynamic = 0.000270747 W

              Global Predictor:
                Area = 0.0856941 mm^2
                Peak Dynamic = 0.0191787 W
                Subthreshold Leakage = 0.0197055 W
                Gate Leakage = 0.000495847 W
                Runtime Dynamic = 8.02348e-05 W

              Local Predictor:
              L1_Local Predictor:
                Area = 0.0483655 mm^2
                Peak Dynamic = 0.0163721 W
                Subthreshold Leakage = 0.0100013 W
                Gate Leakage = 0.000280458 W
                Runtime Dynamic = 7.14018e-05 W

              L2_Local Predictor:
                Area = 0.0253579 mm^2
                Peak Dynamic = 0.00834565 W
                Subthreshold Leakage = 0.0050708 W
                Gate Leakage = 0.000147753 W
                Runtime Dynamic = 3.63994e-05 W

              Chooser:
                Area = 0.0856941 mm^2
                Peak Dynamic = 0.0191787 W
                Subthreshold Leakage = 0.0197055 W
                Gate Leakage = 0.000495847 W
                Runtime Dynamic = 8.02348e-05 W

              RAS:
                Area = 0.0113805 mm^2
                Peak Dynamic = 0.0109026 W
                Subthreshold Leakage = 0.000767647 W
                Gate Leakage = 2.56146e-05 W
                Runtime Dynamic = 2.47582e-06 W

          Instruction Buffer:
            Area = 0.0602122 mm^2
            Peak Dynamic = 1.67657 W
            Subthreshold Leakage = 0.00576253 W
            Gate Leakage = 0.00018516 W
            Runtime Dynamic = 0.00805574 W

          Instruction Decoder:
            Area = 7.75308 mm^2
            Peak Dynamic = 2.66207 W
            Subthreshold Leakage = 1.1189 W
            Gate Leakage = 0.0381395 W
            Runtime Dynamic = 0.0127909 W

      Renaming Unit:
        Area = 1.23784 mm^2
        Peak Dynamic = 8.24718 W
        Subthreshold Leakage = 0.236699 W
        Gate Leakage = 0.0255856 W
        Runtime Dynamic = 0.108862 W

          Int Front End RAT with 1 internal checkpoints:
            Area = 0.184722 mm^2
            Peak Dynamic = 5.14163 W
            Subthreshold Leakage = 0.00273136 W
            Gate Leakage = 0.000106646 W
            Runtime Dynamic = 0.0179228 W

          FP Front End RAT with 1 internal checkpoints:
            Area = 0.025747 mm^2
            Peak Dynamic = 1.25552 W
            Subthreshold Leakage = 0.000877353 W
            Gate Leakage = 5.24626e-05 W
            Runtime Dynamic = 0.00120191 W

          Free List:
            Area = 0.480797 mm^2
            Peak Dynamic = 0.251514 W
            Subthreshold Leakage = 0.00659346 W
            Gate Leakage = 0.000203822 W
            Runtime Dynamic = 0.00172775 W

          FP Free List:
            Area = 0.131231 mm^2
            Peak Dynamic = 0.154797 W
            Subthreshold Leakage = 0.00365632 W
            Gate Leakage = 0.000122342 W
            Runtime Dynamic = 7.29826e-05 W

      Load Store Unit:
        Area = 14.8953 mm^2
        Peak Dynamic = 6.43431 W
        Subthreshold Leakage = 2.53356 W
        Gate Leakage = 0.125582 W
        Runtime Dynamic = 0.0419455 W

          Data Cache:
            Area = 11.9681 mm^2
            Peak Dynamic = 5.56525 W
            Subthreshold Leakage = 2.16076 W
            Gate Leakage = 0.093823 W
            Runtime Dynamic = 0.00810629 W

          LoadQ:
            Area = 0.597754 mm^2
            Peak Dynamic = 0.254064 W
            Subthreshold Leakage = 0.0749804 W
            Gate Leakage = 0.00332956 W
            Runtime Dynamic = 0.00395165 W

          StoreQ:
            Area = 0.597754 mm^2
            Peak Dynamic = 0.254064 W
            Subthreshold Leakage = 0.0749804 W
            Gate Leakage = 0.00332956 W
            Runtime Dynamic = 0.0079033 W

      Memory Management Unit:
        Area = 0.85051 mm^2
        Peak Dynamic = 0.984785 W
        Subthreshold Leakage = 0.281996 W
        Runtime Dynamic = 0.0557194 W

          Itlb:
            Area = 0.104115 mm^2
            Peak Dynamic = 0.0198463 W
            Subthreshold Leakage = 0.0168404 W
            Gate Leakage = 0.000696321 W
            Runtime Dynamic = 0 W

          Dtlb:
            Area = 0.331051 mm^2
            Peak Dynamic = 0.0626126 W
            Subthreshold Leakage = 0.0423145 W
            Gate Leakage = 0.00180917 W
            Runtime Dynamic = 0.000758853 W

      Execution Unit:
        Area = 23.098 mm^2
        Peak Dynamic = 22.2069 W
        Subthreshold Leakage = 5.94234 W
        Runtime Dynamic = 0.828503 W

          Register Files:
            Area = 9.35294 mm^2
            Peak Dynamic = 8.61065 W
            Subthreshold Leakage = 0.183607 W
            Gate Leakage = 0.00649419 W
            Runtime Dynamic = 0.0160755 W

              Integer RF:
                Area = 4.67647 mm^2
                Peak Dynamic = 6.91996 W
                Subthreshold Leakage = 0.0918036 W
                Gate Leakage = 0.00324709 W
                Runtime Dynamic = 0.0149369 W

              Floating Point RF:
                Area = 4.67647 mm^2
                Peak Dynamic = 1.69068 W
                Subthreshold Leakage = 0.0918036 W
                Gate Leakage = 0.00324709 W
                Runtime Dynamic = 0.00113865 W

          Instruction Scheduler:
            Area = 2.5025 mm^2
            Peak Dynamic = 4.84103 W
            Subthreshold Leakage = 0.100503 W
            Gate Leakage = 0.00390898 W
            Runtime Dynamic = 0.0469145 W

              Instruction Window:
                Area = 0.497673 mm^2
                Peak Dynamic = 1.50808 W
                Subthreshold Leakage = 0.0358961 W
                Gate Leakage = 0.00164666 W
                Runtime Dynamic = 0.0153456 W

              FP Instruction Window:
                Area = 0.138043 mm^2
                Peak Dynamic = 0.412321 W
                Subthreshold Leakage = 0.0178333 W
                Gate Leakage = 0.00084265 W
                Runtime Dynamic = 0.00079451 W

              ROB:
                Area = 1.86679 mm^2
                Peak Dynamic = 2.92063 W
                Subthreshold Leakage = 0.0467734 W
                Gate Leakage = 0.00141967 W
                Runtime Dynamic = 0.0307744 W

          Integer ALUs (Count: 6 ):
            Area = 0.672672 mm^2
            Peak Dynamic = 2.72514 W
            Subthreshold Leakage = 1.01603 W
            Gate Leakage = 0.0454759 W
            Runtime Dynamic = 0.125326 W

          Floating Point Units (FPUs) (Count: 2 ):
            Area = 9.71959 mm^2
            Peak Dynamic = 0.88336 W
            Subthreshold Leakage = 3.67022 W
            Gate Leakage = 0.164273 W
            Runtime Dynamic = 0.332859 W

          Complex ALUs (Mul/Div) (Count: 1 ):
            Area = 0.336336 mm^2
            Peak Dynamic = 0.327362 W
            Subthreshold Leakage = 0.508016 W
            Gate Leakage = 0.0227379 W
            Runtime Dynamic = 0.21939 W

          Results Broadcast Bus:
            Area Overhead = 0.0985999 mm^2
            Peak Dynamic = 3.37561 W
            Subthreshold Leakage = 0.241117 W
            Gate Leakage = 0.010792 W
            Runtime Dynamic = 0 W

*****************************************************************************************
L2
      Area = 157.101 mm^2
      Peak Dynamic = 3.52247 W
      Subthreshold Leakage = 14.5072 W
      Gate Leakage = 1.25317 W
      Runtime Dynamic = 0.0307596 W

*****************************************************************************************
BUSES
      Area = 9.24522 mm^2
      Peak Dynamic = 21.4746 W
      Subthreshold Leakage = 0.284846 W
      Gate Leakage = 0.0212595 W
      Runtime Dynamic = 0.0819555 W

      Bus: 
        Area = 9.24522 mm^2
        Peak Dynamic = 21.4746 W
        Subthreshold Leakage = 0.284846 W
        Gate Leakage = 0.0212595 W
        Runtime Dynamic = 0.0819555 W

*****************************************************************************************
