
---------- Begin Simulation Statistics ----------
simSeconds                                   0.000324                       # Number of seconds simulated (Second)
simTicks                                    323716000                       # Number of ticks simulated (Tick)
finalTick                                   323716000                       # Number of ticks from beginning of simulation (restored from checkpoints and never reset) (Tick)
simFreq                                  1000000000000                       # The number of ticks per simulated second ((Tick/Second))
hostSeconds                                     22.42                       # Real time elapsed on the host (Second)
hostTickRate                                 14439637                       # The number of ticks simulated per host second (ticks/s) ((Tick/Second))
hostMemory                                    1463892                       # Number of bytes of host memory used (Byte)
simInsts                                      2134253                       # Number of instructions simulated (Count)
simOps                                        3825826                       # Number of ops (including micro ops) simulated (Count)
hostInstRate                                    95200                       # Simulator instruction rate (inst/s) ((Count/Second))
hostOpRate                                     170654                       # Simulator op (including micro ops) rate (op/s) ((Count/Second))
system.clk_domain.clock                          1000                       # Clock period in ticks (Tick)
system.cpu0.numCycles                          439433                       # Number of cpu cycles simulated (Cycle)
system.cpu0.cpi                              4.018592                       # CPI: cycles per instruction (core level) ((Cycle/Count))
system.cpu0.ipc                              0.248843                       # IPC: instructions per cycle (core level) ((Count/Cycle))
system.cpu0.numWorkItemsStarted                     0                       # Number of work items this cpu started (Count)
system.cpu0.numWorkItemsCompleted                   0                       # Number of work items this cpu completed (Count)
system.cpu0.instsAdded                         305288                       # Number of instructions added to the IQ (excludes non-spec) (Count)
system.cpu0.nonSpecInstsAdded                      80                       # Number of non-speculative instructions added to the IQ (Count)
system.cpu0.instsIssued                        270430                       # Number of instructions issued (Count)
system.cpu0.squashedInstsIssued                   510                       # Number of squashed instructions issued (Count)
system.cpu0.squashedInstsExamined              104652                       # Number of squashed instructions iterated over during squash; mainly for profiling (Count)
system.cpu0.squashedOperandsExamined           207190                       # Number of squashed operands that are examined and possibly removed from graph (Count)
system.cpu0.squashedNonSpecRemoved                 20                       # Number of squashed non-spec instructions that were removed (Count)
system.cpu0.numIssuedDist::samples             316443                       # Number of insts issued each cycle (Count)
system.cpu0.numIssuedDist::mean              0.854593                       # Number of insts issued each cycle (Count)
system.cpu0.numIssuedDist::stdev             1.843307                       # Number of insts issued each cycle (Count)
system.cpu0.numIssuedDist::underflows               0      0.00%      0.00% # Number of insts issued each cycle (Count)
system.cpu0.numIssuedDist::0                   242494     76.63%     76.63% # Number of insts issued each cycle (Count)
system.cpu0.numIssuedDist::1                    14142      4.47%     81.10% # Number of insts issued each cycle (Count)
system.cpu0.numIssuedDist::2                    11901      3.76%     84.86% # Number of insts issued each cycle (Count)
system.cpu0.numIssuedDist::3                    12405      3.92%     88.78% # Number of insts issued each cycle (Count)
system.cpu0.numIssuedDist::4                     9861      3.12%     91.90% # Number of insts issued each cycle (Count)
system.cpu0.numIssuedDist::5                     9751      3.08%     94.98% # Number of insts issued each cycle (Count)
system.cpu0.numIssuedDist::6                     7535      2.38%     97.36% # Number of insts issued each cycle (Count)
system.cpu0.numIssuedDist::7                     4970      1.57%     98.93% # Number of insts issued each cycle (Count)
system.cpu0.numIssuedDist::8                     3384      1.07%    100.00% # Number of insts issued each cycle (Count)
system.cpu0.numIssuedDist::overflows                0      0.00%    100.00% # Number of insts issued each cycle (Count)
system.cpu0.numIssuedDist::min_value                0                       # Number of insts issued each cycle (Count)
system.cpu0.numIssuedDist::max_value                8                       # Number of insts issued each cycle (Count)
system.cpu0.numIssuedDist::total               316443                       # Number of insts issued each cycle (Count)
system.cpu0.statFuBusy::No_OpClass                  0      0.00%      0.00% # attempts to use FU when none available (Count)
system.cpu0.statFuBusy::IntAlu                   3131     67.38%     67.38% # attempts to use FU when none available (Count)
system.cpu0.statFuBusy::IntMult                     0      0.00%     67.38% # attempts to use FU when none available (Count)
system.cpu0.statFuBusy::IntDiv                      0      0.00%     67.38% # attempts to use FU when none available (Count)
system.cpu0.statFuBusy::FloatAdd                    0      0.00%     67.38% # attempts to use FU when none available (Count)
system.cpu0.statFuBusy::FloatCmp                    0      0.00%     67.38% # attempts to use FU when none available (Count)
system.cpu0.statFuBusy::FloatCvt                    0      0.00%     67.38% # attempts to use FU when none available (Count)
system.cpu0.statFuBusy::FloatMult                   0      0.00%     67.38% # attempts to use FU when none available (Count)
system.cpu0.statFuBusy::FloatMultAcc                0      0.00%     67.38% # attempts to use FU when none available (Count)
system.cpu0.statFuBusy::FloatDiv                    0      0.00%     67.38% # attempts to use FU when none available (Count)
system.cpu0.statFuBusy::FloatMisc                   0      0.00%     67.38% # attempts to use FU when none available (Count)
system.cpu0.statFuBusy::FloatSqrt                   0      0.00%     67.38% # attempts to use FU when none available (Count)
system.cpu0.statFuBusy::SimdAdd                     0      0.00%     67.38% # attempts to use FU when none available (Count)
system.cpu0.statFuBusy::SimdAddAcc                  0      0.00%     67.38% # attempts to use FU when none available (Count)
system.cpu0.statFuBusy::SimdAlu                    17      0.37%     67.74% # attempts to use FU when none available (Count)
system.cpu0.statFuBusy::SimdCmp                     0      0.00%     67.74% # attempts to use FU when none available (Count)
system.cpu0.statFuBusy::SimdCvt                    29      0.62%     68.37% # attempts to use FU when none available (Count)
system.cpu0.statFuBusy::SimdMisc                    0      0.00%     68.37% # attempts to use FU when none available (Count)
system.cpu0.statFuBusy::SimdMult                    0      0.00%     68.37% # attempts to use FU when none available (Count)
system.cpu0.statFuBusy::SimdMultAcc                 0      0.00%     68.37% # attempts to use FU when none available (Count)
system.cpu0.statFuBusy::SimdMatMultAcc              0      0.00%     68.37% # attempts to use FU when none available (Count)
system.cpu0.statFuBusy::SimdShift                  46      0.99%     69.36% # attempts to use FU when none available (Count)
system.cpu0.statFuBusy::SimdShiftAcc                0      0.00%     69.36% # attempts to use FU when none available (Count)
system.cpu0.statFuBusy::SimdDiv                     0      0.00%     69.36% # attempts to use FU when none available (Count)
system.cpu0.statFuBusy::SimdSqrt                    0      0.00%     69.36% # attempts to use FU when none available (Count)
system.cpu0.statFuBusy::SimdFloatAdd                0      0.00%     69.36% # attempts to use FU when none available (Count)
system.cpu0.statFuBusy::SimdFloatAlu                0      0.00%     69.36% # attempts to use FU when none available (Count)
system.cpu0.statFuBusy::SimdFloatCmp                0      0.00%     69.36% # attempts to use FU when none available (Count)
system.cpu0.statFuBusy::SimdFloatCvt                0      0.00%     69.36% # attempts to use FU when none available (Count)
system.cpu0.statFuBusy::SimdFloatDiv                0      0.00%     69.36% # attempts to use FU when none available (Count)
system.cpu0.statFuBusy::SimdFloatMisc               0      0.00%     69.36% # attempts to use FU when none available (Count)
system.cpu0.statFuBusy::SimdFloatMult               0      0.00%     69.36% # attempts to use FU when none available (Count)
system.cpu0.statFuBusy::SimdFloatMultAcc            0      0.00%     69.36% # attempts to use FU when none available (Count)
system.cpu0.statFuBusy::SimdFloatMatMultAcc            0      0.00%     69.36% # attempts to use FU when none available (Count)
system.cpu0.statFuBusy::SimdFloatSqrt               0      0.00%     69.36% # attempts to use FU when none available (Count)
system.cpu0.statFuBusy::SimdReduceAdd               0      0.00%     69.36% # attempts to use FU when none available (Count)
system.cpu0.statFuBusy::SimdReduceAlu               0      0.00%     69.36% # attempts to use FU when none available (Count)
system.cpu0.statFuBusy::SimdReduceCmp               0      0.00%     69.36% # attempts to use FU when none available (Count)
system.cpu0.statFuBusy::SimdFloatReduceAdd            0      0.00%     69.36% # attempts to use FU when none available (Count)
system.cpu0.statFuBusy::SimdFloatReduceCmp            0      0.00%     69.36% # attempts to use FU when none available (Count)
system.cpu0.statFuBusy::SimdAes                     0      0.00%     69.36% # attempts to use FU when none available (Count)
system.cpu0.statFuBusy::SimdAesMix                  0      0.00%     69.36% # attempts to use FU when none available (Count)
system.cpu0.statFuBusy::SimdSha1Hash                0      0.00%     69.36% # attempts to use FU when none available (Count)
system.cpu0.statFuBusy::SimdSha1Hash2               0      0.00%     69.36% # attempts to use FU when none available (Count)
system.cpu0.statFuBusy::SimdSha256Hash              0      0.00%     69.36% # attempts to use FU when none available (Count)
system.cpu0.statFuBusy::SimdSha256Hash2             0      0.00%     69.36% # attempts to use FU when none available (Count)
system.cpu0.statFuBusy::SimdShaSigma2               0      0.00%     69.36% # attempts to use FU when none available (Count)
system.cpu0.statFuBusy::SimdShaSigma3               0      0.00%     69.36% # attempts to use FU when none available (Count)
system.cpu0.statFuBusy::SimdPredAlu                 0      0.00%     69.36% # attempts to use FU when none available (Count)
system.cpu0.statFuBusy::Matrix                      0      0.00%     69.36% # attempts to use FU when none available (Count)
system.cpu0.statFuBusy::MatrixMov                   0      0.00%     69.36% # attempts to use FU when none available (Count)
system.cpu0.statFuBusy::MatrixOP                    0      0.00%     69.36% # attempts to use FU when none available (Count)
system.cpu0.statFuBusy::MemRead                   787     16.94%     86.29% # attempts to use FU when none available (Count)
system.cpu0.statFuBusy::MemWrite                  557     11.99%     98.28% # attempts to use FU when none available (Count)
system.cpu0.statFuBusy::FloatMemRead               35      0.75%     99.03% # attempts to use FU when none available (Count)
system.cpu0.statFuBusy::FloatMemWrite              45      0.97%    100.00% # attempts to use FU when none available (Count)
system.cpu0.statFuBusy::IprAccess                   0      0.00%    100.00% # attempts to use FU when none available (Count)
system.cpu0.statFuBusy::InstPrefetch                0      0.00%    100.00% # attempts to use FU when none available (Count)
system.cpu0.statFuBusy::VectorUnitStrideLoad            0      0.00%    100.00% # attempts to use FU when none available (Count)
system.cpu0.statFuBusy::VectorUnitStrideStore            0      0.00%    100.00% # attempts to use FU when none available (Count)
system.cpu0.statFuBusy::VectorUnitStrideMaskLoad            0      0.00%    100.00% # attempts to use FU when none available (Count)
system.cpu0.statFuBusy::VectorUnitStrideMaskStore            0      0.00%    100.00% # attempts to use FU when none available (Count)
system.cpu0.statFuBusy::VectorStridedLoad            0      0.00%    100.00% # attempts to use FU when none available (Count)
system.cpu0.statFuBusy::VectorStridedStore            0      0.00%    100.00% # attempts to use FU when none available (Count)
system.cpu0.statFuBusy::VectorIndexedLoad            0      0.00%    100.00% # attempts to use FU when none available (Count)
system.cpu0.statFuBusy::VectorIndexedStore            0      0.00%    100.00% # attempts to use FU when none available (Count)
system.cpu0.statFuBusy::VectorUnitStrideFaultOnlyFirstLoad            0      0.00%    100.00% # attempts to use FU when none available (Count)
system.cpu0.statFuBusy::VectorWholeRegisterLoad            0      0.00%    100.00% # attempts to use FU when none available (Count)
system.cpu0.statFuBusy::VectorWholeRegisterStore            0      0.00%    100.00% # attempts to use FU when none available (Count)
system.cpu0.statFuBusy::VectorIntegerArith            0      0.00%    100.00% # attempts to use FU when none available (Count)
system.cpu0.statFuBusy::VectorFloatArith            0      0.00%    100.00% # attempts to use FU when none available (Count)
system.cpu0.statFuBusy::VectorFloatConvert            0      0.00%    100.00% # attempts to use FU when none available (Count)
system.cpu0.statFuBusy::VectorIntegerReduce            0      0.00%    100.00% # attempts to use FU when none available (Count)
system.cpu0.statFuBusy::VectorFloatReduce            0      0.00%    100.00% # attempts to use FU when none available (Count)
system.cpu0.statFuBusy::VectorMisc                  0      0.00%    100.00% # attempts to use FU when none available (Count)
system.cpu0.statFuBusy::VectorIntegerExtension            0      0.00%    100.00% # attempts to use FU when none available (Count)
system.cpu0.statFuBusy::VectorConfig                0      0.00%    100.00% # attempts to use FU when none available (Count)
system.cpu0.statIssuedInstType_0::No_OpClass         2736      1.01%      1.01% # Number of instructions issued per FU type, per thread (Count)
system.cpu0.statIssuedInstType_0::IntAlu       200202     74.03%     75.04% # Number of instructions issued per FU type, per thread (Count)
system.cpu0.statIssuedInstType_0::IntMult           20      0.01%     75.05% # Number of instructions issued per FU type, per thread (Count)
system.cpu0.statIssuedInstType_0::IntDiv         1774      0.66%     75.71% # Number of instructions issued per FU type, per thread (Count)
system.cpu0.statIssuedInstType_0::FloatAdd          731      0.27%     75.98% # Number of instructions issued per FU type, per thread (Count)
system.cpu0.statIssuedInstType_0::FloatCmp            0      0.00%     75.98% # Number of instructions issued per FU type, per thread (Count)
system.cpu0.statIssuedInstType_0::FloatCvt           32      0.01%     75.99% # Number of instructions issued per FU type, per thread (Count)
system.cpu0.statIssuedInstType_0::FloatMult            0      0.00%     75.99% # Number of instructions issued per FU type, per thread (Count)
system.cpu0.statIssuedInstType_0::FloatMultAcc            0      0.00%     75.99% # Number of instructions issued per FU type, per thread (Count)
system.cpu0.statIssuedInstType_0::FloatDiv            0      0.00%     75.99% # Number of instructions issued per FU type, per thread (Count)
system.cpu0.statIssuedInstType_0::FloatMisc            0      0.00%     75.99% # Number of instructions issued per FU type, per thread (Count)
system.cpu0.statIssuedInstType_0::FloatSqrt            0      0.00%     75.99% # Number of instructions issued per FU type, per thread (Count)
system.cpu0.statIssuedInstType_0::SimdAdd          723      0.27%     76.26% # Number of instructions issued per FU type, per thread (Count)
system.cpu0.statIssuedInstType_0::SimdAddAcc            0      0.00%     76.26% # Number of instructions issued per FU type, per thread (Count)
system.cpu0.statIssuedInstType_0::SimdAlu         1956      0.72%     76.98% # Number of instructions issued per FU type, per thread (Count)
system.cpu0.statIssuedInstType_0::SimdCmp            0      0.00%     76.98% # Number of instructions issued per FU type, per thread (Count)
system.cpu0.statIssuedInstType_0::SimdCvt         1815      0.67%     77.65% # Number of instructions issued per FU type, per thread (Count)
system.cpu0.statIssuedInstType_0::SimdMisc         1317      0.49%     78.14% # Number of instructions issued per FU type, per thread (Count)
system.cpu0.statIssuedInstType_0::SimdMult            0      0.00%     78.14% # Number of instructions issued per FU type, per thread (Count)
system.cpu0.statIssuedInstType_0::SimdMultAcc            0      0.00%     78.14% # Number of instructions issued per FU type, per thread (Count)
system.cpu0.statIssuedInstType_0::SimdMatMultAcc            0      0.00%     78.14% # Number of instructions issued per FU type, per thread (Count)
system.cpu0.statIssuedInstType_0::SimdShift          812      0.30%     78.44% # Number of instructions issued per FU type, per thread (Count)
system.cpu0.statIssuedInstType_0::SimdShiftAcc            0      0.00%     78.44% # Number of instructions issued per FU type, per thread (Count)
system.cpu0.statIssuedInstType_0::SimdDiv            0      0.00%     78.44% # Number of instructions issued per FU type, per thread (Count)
system.cpu0.statIssuedInstType_0::SimdSqrt            0      0.00%     78.44% # Number of instructions issued per FU type, per thread (Count)
system.cpu0.statIssuedInstType_0::SimdFloatAdd            0      0.00%     78.44% # Number of instructions issued per FU type, per thread (Count)
system.cpu0.statIssuedInstType_0::SimdFloatAlu            0      0.00%     78.44% # Number of instructions issued per FU type, per thread (Count)
system.cpu0.statIssuedInstType_0::SimdFloatCmp            0      0.00%     78.44% # Number of instructions issued per FU type, per thread (Count)
system.cpu0.statIssuedInstType_0::SimdFloatCvt            0      0.00%     78.44% # Number of instructions issued per FU type, per thread (Count)
system.cpu0.statIssuedInstType_0::SimdFloatDiv            0      0.00%     78.44% # Number of instructions issued per FU type, per thread (Count)
system.cpu0.statIssuedInstType_0::SimdFloatMisc            0      0.00%     78.44% # Number of instructions issued per FU type, per thread (Count)
system.cpu0.statIssuedInstType_0::SimdFloatMult            0      0.00%     78.44% # Number of instructions issued per FU type, per thread (Count)
system.cpu0.statIssuedInstType_0::SimdFloatMultAcc            0      0.00%     78.44% # Number of instructions issued per FU type, per thread (Count)
system.cpu0.statIssuedInstType_0::SimdFloatMatMultAcc            0      0.00%     78.44% # Number of instructions issued per FU type, per thread (Count)
system.cpu0.statIssuedInstType_0::SimdFloatSqrt            0      0.00%     78.44% # Number of instructions issued per FU type, per thread (Count)
system.cpu0.statIssuedInstType_0::SimdReduceAdd            0      0.00%     78.44% # Number of instructions issued per FU type, per thread (Count)
system.cpu0.statIssuedInstType_0::SimdReduceAlu            0      0.00%     78.44% # Number of instructions issued per FU type, per thread (Count)
system.cpu0.statIssuedInstType_0::SimdReduceCmp            0      0.00%     78.44% # Number of instructions issued per FU type, per thread (Count)
system.cpu0.statIssuedInstType_0::SimdFloatReduceAdd            0      0.00%     78.44% # Number of instructions issued per FU type, per thread (Count)
system.cpu0.statIssuedInstType_0::SimdFloatReduceCmp            0      0.00%     78.44% # Number of instructions issued per FU type, per thread (Count)
system.cpu0.statIssuedInstType_0::SimdAes            0      0.00%     78.44% # Number of instructions issued per FU type, per thread (Count)
system.cpu0.statIssuedInstType_0::SimdAesMix            0      0.00%     78.44% # Number of instructions issued per FU type, per thread (Count)
system.cpu0.statIssuedInstType_0::SimdSha1Hash            0      0.00%     78.44% # Number of instructions issued per FU type, per thread (Count)
system.cpu0.statIssuedInstType_0::SimdSha1Hash2            0      0.00%     78.44% # Number of instructions issued per FU type, per thread (Count)
system.cpu0.statIssuedInstType_0::SimdSha256Hash            0      0.00%     78.44% # Number of instructions issued per FU type, per thread (Count)
system.cpu0.statIssuedInstType_0::SimdSha256Hash2            0      0.00%     78.44% # Number of instructions issued per FU type, per thread (Count)
system.cpu0.statIssuedInstType_0::SimdShaSigma2            0      0.00%     78.44% # Number of instructions issued per FU type, per thread (Count)
system.cpu0.statIssuedInstType_0::SimdShaSigma3            0      0.00%     78.44% # Number of instructions issued per FU type, per thread (Count)
system.cpu0.statIssuedInstType_0::SimdPredAlu            0      0.00%     78.44% # Number of instructions issued per FU type, per thread (Count)
system.cpu0.statIssuedInstType_0::Matrix            0      0.00%     78.44% # Number of instructions issued per FU type, per thread (Count)
system.cpu0.statIssuedInstType_0::MatrixMov            0      0.00%     78.44% # Number of instructions issued per FU type, per thread (Count)
system.cpu0.statIssuedInstType_0::MatrixOP            0      0.00%     78.44% # Number of instructions issued per FU type, per thread (Count)
system.cpu0.statIssuedInstType_0::MemRead        37903     14.02%     92.45% # Number of instructions issued per FU type, per thread (Count)
system.cpu0.statIssuedInstType_0::MemWrite        16322      6.04%     98.49% # Number of instructions issued per FU type, per thread (Count)
system.cpu0.statIssuedInstType_0::FloatMemRead         2865      1.06%     99.55% # Number of instructions issued per FU type, per thread (Count)
system.cpu0.statIssuedInstType_0::FloatMemWrite         1222      0.45%    100.00% # Number of instructions issued per FU type, per thread (Count)
system.cpu0.statIssuedInstType_0::IprAccess            0      0.00%    100.00% # Number of instructions issued per FU type, per thread (Count)
system.cpu0.statIssuedInstType_0::InstPrefetch            0      0.00%    100.00% # Number of instructions issued per FU type, per thread (Count)
system.cpu0.statIssuedInstType_0::VectorUnitStrideLoad            0      0.00%    100.00% # Number of instructions issued per FU type, per thread (Count)
system.cpu0.statIssuedInstType_0::VectorUnitStrideStore            0      0.00%    100.00% # Number of instructions issued per FU type, per thread (Count)
system.cpu0.statIssuedInstType_0::VectorUnitStrideMaskLoad            0      0.00%    100.00% # Number of instructions issued per FU type, per thread (Count)
system.cpu0.statIssuedInstType_0::VectorUnitStrideMaskStore            0      0.00%    100.00% # Number of instructions issued per FU type, per thread (Count)
system.cpu0.statIssuedInstType_0::VectorStridedLoad            0      0.00%    100.00% # Number of instructions issued per FU type, per thread (Count)
system.cpu0.statIssuedInstType_0::VectorStridedStore            0      0.00%    100.00% # Number of instructions issued per FU type, per thread (Count)
system.cpu0.statIssuedInstType_0::VectorIndexedLoad            0      0.00%    100.00% # Number of instructions issued per FU type, per thread (Count)
system.cpu0.statIssuedInstType_0::VectorIndexedStore            0      0.00%    100.00% # Number of instructions issued per FU type, per thread (Count)
system.cpu0.statIssuedInstType_0::VectorUnitStrideFaultOnlyFirstLoad            0      0.00%    100.00% # Number of instructions issued per FU type, per thread (Count)
system.cpu0.statIssuedInstType_0::VectorWholeRegisterLoad            0      0.00%    100.00% # Number of instructions issued per FU type, per thread (Count)
system.cpu0.statIssuedInstType_0::VectorWholeRegisterStore            0      0.00%    100.00% # Number of instructions issued per FU type, per thread (Count)
system.cpu0.statIssuedInstType_0::VectorIntegerArith            0      0.00%    100.00% # Number of instructions issued per FU type, per thread (Count)
system.cpu0.statIssuedInstType_0::VectorFloatArith            0      0.00%    100.00% # Number of instructions issued per FU type, per thread (Count)
system.cpu0.statIssuedInstType_0::VectorFloatConvert            0      0.00%    100.00% # Number of instructions issued per FU type, per thread (Count)
system.cpu0.statIssuedInstType_0::VectorIntegerReduce            0      0.00%    100.00% # Number of instructions issued per FU type, per thread (Count)
system.cpu0.statIssuedInstType_0::VectorFloatReduce            0      0.00%    100.00% # Number of instructions issued per FU type, per thread (Count)
system.cpu0.statIssuedInstType_0::VectorMisc            0      0.00%    100.00% # Number of instructions issued per FU type, per thread (Count)
system.cpu0.statIssuedInstType_0::VectorIntegerExtension            0      0.00%    100.00% # Number of instructions issued per FU type, per thread (Count)
system.cpu0.statIssuedInstType_0::VectorConfig            0      0.00%    100.00% # Number of instructions issued per FU type, per thread (Count)
system.cpu0.statIssuedInstType_0::total        270430                       # Number of instructions issued per FU type, per thread (Count)
system.cpu0.issueRate                        0.615407                       # Inst issue rate ((Count/Cycle))
system.cpu0.fuBusy                               4647                       # FU busy when requested (Count)
system.cpu0.fuBusyRate                       0.017184                       # FU busy rate (busy events/executed inst) ((Count/Count))
system.cpu0.intInstQueueReads                  838516                       # Number of integer instruction queue reads (Count)
system.cpu0.intInstQueueWrites                 386867                       # Number of integer instruction queue writes (Count)
system.cpu0.intInstQueueWakeupAccesses         250853                       # Number of integer instruction queue wakeup accesses (Count)
system.cpu0.fpInstQueueReads                    23944                       # Number of floating instruction queue reads (Count)
system.cpu0.fpInstQueueWrites                   23237                       # Number of floating instruction queue writes (Count)
system.cpu0.fpInstQueueWakeupAccesses           10942                       # Number of floating instruction queue wakeup accesses (Count)
system.cpu0.vecInstQueueReads                       0                       # Number of vector instruction queue reads (Count)
system.cpu0.vecInstQueueWrites                      0                       # Number of vector instruction queue writes (Count)
system.cpu0.vecInstQueueWakeupAccesses              0                       # Number of vector instruction queue wakeup accesses (Count)
system.cpu0.intAluAccesses                     260319                       # Number of integer alu accesses (Count)
system.cpu0.fpAluAccesses                       12022                       # Number of floating point alu accesses (Count)
system.cpu0.vecAluAccesses                          0                       # Number of vector alu accesses (Count)
system.cpu0.numSquashedInsts                     4090                       # Number of squashed instructions skipped in execute (Count)
system.cpu0.numSwp                                  0                       # Number of swp insts executed (Count)
system.cpu0.timesIdled                            909                       # Number of times that the entire CPU went into an idle state and unscheduled itself (Count)
system.cpu0.idleCycles                         122990                       # Total number of cycles that the CPU has spent unscheduled due to idling (Cycle)
system.cpu0.MemDepUnit__0.insertedLoads         42394                       # Number of loads inserted to the mem dependence unit. (Count)
system.cpu0.MemDepUnit__0.insertedStores        19296                       # Number of stores inserted to the mem dependence unit. (Count)
system.cpu0.MemDepUnit__0.conflictingLoads         1050                       # Number of conflicting loads. (Count)
system.cpu0.MemDepUnit__0.conflictingStores          391                       # Number of conflicting stores. (Count)
system.cpu0.MemDepUnit__1.insertedLoads             0                       # Number of loads inserted to the mem dependence unit. (Count)
system.cpu0.MemDepUnit__1.insertedStores            0                       # Number of stores inserted to the mem dependence unit. (Count)
system.cpu0.MemDepUnit__1.conflictingLoads            0                       # Number of conflicting loads. (Count)
system.cpu0.MemDepUnit__1.conflictingStores            0                       # Number of conflicting stores. (Count)
system.cpu0.MemDepUnit__2.insertedLoads             0                       # Number of loads inserted to the mem dependence unit. (Count)
system.cpu0.MemDepUnit__2.insertedStores            0                       # Number of stores inserted to the mem dependence unit. (Count)
system.cpu0.MemDepUnit__2.conflictingLoads            0                       # Number of conflicting loads. (Count)
system.cpu0.MemDepUnit__2.conflictingStores            0                       # Number of conflicting stores. (Count)
system.cpu0.MemDepUnit__3.insertedLoads             0                       # Number of loads inserted to the mem dependence unit. (Count)
system.cpu0.MemDepUnit__3.insertedStores            0                       # Number of stores inserted to the mem dependence unit. (Count)
system.cpu0.MemDepUnit__3.conflictingLoads            0                       # Number of conflicting loads. (Count)
system.cpu0.MemDepUnit__3.conflictingStores            0                       # Number of conflicting stores. (Count)
system.cpu0.branchPred.lookups_0::NoBranch          451      1.25%      1.25% # Number of BP lookups (Count)
system.cpu0.branchPred.lookups_0::Return         1497      4.15%      5.40% # Number of BP lookups (Count)
system.cpu0.branchPred.lookups_0::CallDirect         1666      4.62%     10.01% # Number of BP lookups (Count)
system.cpu0.branchPred.lookups_0::CallIndirect          304      0.84%     10.85% # Number of BP lookups (Count)
system.cpu0.branchPred.lookups_0::DirectCond        30055     83.27%     94.12% # Number of BP lookups (Count)
system.cpu0.branchPred.lookups_0::DirectUncond         1597      4.42%     98.55% # Number of BP lookups (Count)
system.cpu0.branchPred.lookups_0::IndirectCond            0      0.00%     98.55% # Number of BP lookups (Count)
system.cpu0.branchPred.lookups_0::IndirectUncond          524      1.45%    100.00% # Number of BP lookups (Count)
system.cpu0.branchPred.lookups_0::total         36094                       # Number of BP lookups (Count)
system.cpu0.branchPred.squashes_0::NoBranch          399      2.57%      2.57% # Number of branches that got squashed (completely removed) as an earlier branch was mispredicted. (Count)
system.cpu0.branchPred.squashes_0::Return          644      4.15%      6.73% # Number of branches that got squashed (completely removed) as an earlier branch was mispredicted. (Count)
system.cpu0.branchPred.squashes_0::CallDirect          897      5.78%     12.51% # Number of branches that got squashed (completely removed) as an earlier branch was mispredicted. (Count)
system.cpu0.branchPred.squashes_0::CallIndirect          215      1.39%     13.90% # Number of branches that got squashed (completely removed) as an earlier branch was mispredicted. (Count)
system.cpu0.branchPred.squashes_0::DirectCond        12293     79.27%     93.17% # Number of branches that got squashed (completely removed) as an earlier branch was mispredicted. (Count)
system.cpu0.branchPred.squashes_0::DirectUncond          788      5.08%     98.25% # Number of branches that got squashed (completely removed) as an earlier branch was mispredicted. (Count)
system.cpu0.branchPred.squashes_0::IndirectCond            0      0.00%     98.25% # Number of branches that got squashed (completely removed) as an earlier branch was mispredicted. (Count)
system.cpu0.branchPred.squashes_0::IndirectUncond          271      1.75%    100.00% # Number of branches that got squashed (completely removed) as an earlier branch was mispredicted. (Count)
system.cpu0.branchPred.squashes_0::total        15507                       # Number of branches that got squashed (completely removed) as an earlier branch was mispredicted. (Count)
system.cpu0.branchPred.corrected_0::NoBranch          108      4.01%      4.01% # Number of branches that got corrected but not yet commited. Branches get corrected by decode or after execute. Also a branch misprediction can be detected out-of-order. Therefore, a corrected branch might not end up beeing committed in case an even earlier branch was mispredicted (Count)
system.cpu0.branchPred.corrected_0::Return            4      0.15%      4.16% # Number of branches that got corrected but not yet commited. Branches get corrected by decode or after execute. Also a branch misprediction can be detected out-of-order. Therefore, a corrected branch might not end up beeing committed in case an even earlier branch was mispredicted (Count)
system.cpu0.branchPred.corrected_0::CallDirect          261      9.69%     13.85% # Number of branches that got corrected but not yet commited. Branches get corrected by decode or after execute. Also a branch misprediction can be detected out-of-order. Therefore, a corrected branch might not end up beeing committed in case an even earlier branch was mispredicted (Count)
system.cpu0.branchPred.corrected_0::CallIndirect           96      3.56%     17.42% # Number of branches that got corrected but not yet commited. Branches get corrected by decode or after execute. Also a branch misprediction can be detected out-of-order. Therefore, a corrected branch might not end up beeing committed in case an even earlier branch was mispredicted (Count)
system.cpu0.branchPred.corrected_0::DirectCond         1777     65.99%     83.40% # Number of branches that got corrected but not yet commited. Branches get corrected by decode or after execute. Also a branch misprediction can be detected out-of-order. Therefore, a corrected branch might not end up beeing committed in case an even earlier branch was mispredicted (Count)
system.cpu0.branchPred.corrected_0::DirectUncond          263      9.77%     93.17% # Number of branches that got corrected but not yet commited. Branches get corrected by decode or after execute. Also a branch misprediction can be detected out-of-order. Therefore, a corrected branch might not end up beeing committed in case an even earlier branch was mispredicted (Count)
system.cpu0.branchPred.corrected_0::IndirectCond            0      0.00%     93.17% # Number of branches that got corrected but not yet commited. Branches get corrected by decode or after execute. Also a branch misprediction can be detected out-of-order. Therefore, a corrected branch might not end up beeing committed in case an even earlier branch was mispredicted (Count)
system.cpu0.branchPred.corrected_0::IndirectUncond          184      6.83%    100.00% # Number of branches that got corrected but not yet commited. Branches get corrected by decode or after execute. Also a branch misprediction can be detected out-of-order. Therefore, a corrected branch might not end up beeing committed in case an even earlier branch was mispredicted (Count)
system.cpu0.branchPred.corrected_0::total         2693                       # Number of branches that got corrected but not yet commited. Branches get corrected by decode or after execute. Also a branch misprediction can be detected out-of-order. Therefore, a corrected branch might not end up beeing committed in case an even earlier branch was mispredicted (Count)
system.cpu0.branchPred.earlyResteers_0::NoBranch            0                       # Number of branches that got redirected after decode. (Count)
system.cpu0.branchPred.earlyResteers_0::Return            0                       # Number of branches that got redirected after decode. (Count)
system.cpu0.branchPred.earlyResteers_0::CallDirect            0                       # Number of branches that got redirected after decode. (Count)
system.cpu0.branchPred.earlyResteers_0::CallIndirect            0                       # Number of branches that got redirected after decode. (Count)
system.cpu0.branchPred.earlyResteers_0::DirectCond            0                       # Number of branches that got redirected after decode. (Count)
system.cpu0.branchPred.earlyResteers_0::DirectUncond            0                       # Number of branches that got redirected after decode. (Count)
system.cpu0.branchPred.earlyResteers_0::IndirectCond            0                       # Number of branches that got redirected after decode. (Count)
system.cpu0.branchPred.earlyResteers_0::IndirectUncond            0                       # Number of branches that got redirected after decode. (Count)
system.cpu0.branchPred.earlyResteers_0::total            0                       # Number of branches that got redirected after decode. (Count)
system.cpu0.branchPred.committed_0::NoBranch           52      0.25%      0.25% # Number of branches finally committed  (Count)
system.cpu0.branchPred.committed_0::Return          853      4.14%      4.40% # Number of branches finally committed  (Count)
system.cpu0.branchPred.committed_0::CallDirect          769      3.74%      8.13% # Number of branches finally committed  (Count)
system.cpu0.branchPred.committed_0::CallIndirect           89      0.43%      8.56% # Number of branches finally committed  (Count)
system.cpu0.branchPred.committed_0::DirectCond        17762     86.28%     94.84% # Number of branches finally committed  (Count)
system.cpu0.branchPred.committed_0::DirectUncond          809      3.93%     98.77% # Number of branches finally committed  (Count)
system.cpu0.branchPred.committed_0::IndirectCond            0      0.00%     98.77% # Number of branches finally committed  (Count)
system.cpu0.branchPred.committed_0::IndirectUncond          253      1.23%    100.00% # Number of branches finally committed  (Count)
system.cpu0.branchPred.committed_0::total        20587                       # Number of branches finally committed  (Count)
system.cpu0.branchPred.mispredicted_0::NoBranch           52      2.38%      2.38% # Number of committed branches that were mispredicted. (Count)
system.cpu0.branchPred.mispredicted_0::Return            0      0.00%      2.38% # Number of committed branches that were mispredicted. (Count)
system.cpu0.branchPred.mispredicted_0::CallDirect          135      6.17%      8.55% # Number of committed branches that were mispredicted. (Count)
system.cpu0.branchPred.mispredicted_0::CallIndirect           88      4.02%     12.57% # Number of committed branches that were mispredicted. (Count)
system.cpu0.branchPred.mispredicted_0::DirectCond         1599     73.11%     85.69% # Number of committed branches that were mispredicted. (Count)
system.cpu0.branchPred.mispredicted_0::DirectUncond          139      6.36%     92.04% # Number of committed branches that were mispredicted. (Count)
system.cpu0.branchPred.mispredicted_0::IndirectCond            0      0.00%     92.04% # Number of committed branches that were mispredicted. (Count)
system.cpu0.branchPred.mispredicted_0::IndirectUncond          174      7.96%    100.00% # Number of committed branches that were mispredicted. (Count)
system.cpu0.branchPred.mispredicted_0::total         2187                       # Number of committed branches that were mispredicted. (Count)
system.cpu0.branchPred.targetProvider_0::NoTarget        21322     59.07%     59.07% # The component providing the target for taken branches (Count)
system.cpu0.branchPred.targetProvider_0::BTB        13134     36.39%     95.46% # The component providing the target for taken branches (Count)
system.cpu0.branchPred.targetProvider_0::RAS         1497      4.15%     99.61% # The component providing the target for taken branches (Count)
system.cpu0.branchPred.targetProvider_0::Indirect          141      0.39%    100.00% # The component providing the target for taken branches (Count)
system.cpu0.branchPred.targetProvider_0::total        36094                       # The component providing the target for taken branches (Count)
system.cpu0.branchPred.targetWrong_0::NoBranch         2005     82.44%     82.44% # Number of branches where the target was incorrect or not available at prediction time. (Count)
system.cpu0.branchPred.targetWrong_0::Return          401     16.49%     98.93% # Number of branches where the target was incorrect or not available at prediction time. (Count)
system.cpu0.branchPred.targetWrong_0::CallDirect            4      0.16%     99.10% # Number of branches where the target was incorrect or not available at prediction time. (Count)
system.cpu0.branchPred.targetWrong_0::CallIndirect           22      0.90%    100.00% # Number of branches where the target was incorrect or not available at prediction time. (Count)
system.cpu0.branchPred.targetWrong_0::DirectCond            0      0.00%    100.00% # Number of branches where the target was incorrect or not available at prediction time. (Count)
system.cpu0.branchPred.targetWrong_0::DirectUncond            0      0.00%    100.00% # Number of branches where the target was incorrect or not available at prediction time. (Count)
system.cpu0.branchPred.targetWrong_0::IndirectCond            0      0.00%    100.00% # Number of branches where the target was incorrect or not available at prediction time. (Count)
system.cpu0.branchPred.targetWrong_0::IndirectUncond            0      0.00%    100.00% # Number of branches where the target was incorrect or not available at prediction time. (Count)
system.cpu0.branchPred.targetWrong_0::total         2432                       # Number of branches where the target was incorrect or not available at prediction time. (Count)
system.cpu0.branchPred.condPredicted            30506                       # Number of conditional branches predicted (Count)
system.cpu0.branchPred.condPredictedTaken        11669                       # Number of conditional branches predicted as taken (Count)
system.cpu0.branchPred.condIncorrect             2693                       # Number of conditional branches incorrect (Count)
system.cpu0.branchPred.predTakenBTBMiss           679                       # Number of branches predicted taken but missed in BTB (Count)
system.cpu0.branchPred.NotTakenMispredicted         2263                       # Number branches predicted 'not taken' but turned out to be taken (Count)
system.cpu0.branchPred.TakenMispredicted          430                       # Number branches predicted taken but are actually not taken (Count)
system.cpu0.branchPred.BTBLookups               36094                       # Number of BTB lookups (Count)
system.cpu0.branchPred.BTBUpdates                1871                       # Number of BTB updates (Count)
system.cpu0.branchPred.BTBHits                  18091                       # Number of BTB hits (Count)
system.cpu0.branchPred.BTBHitRatio           0.501219                       # BTB Hit Ratio (Ratio)
system.cpu0.branchPred.BTBMispredicted           1151                       # Number BTB mispredictions. No target found or target wrong (Count)
system.cpu0.branchPred.indirectLookups            828                       # Number of indirect predictor lookups. (Count)
system.cpu0.branchPred.indirectHits               141                       # Number of indirect target hits. (Count)
system.cpu0.branchPred.indirectMisses             687                       # Number of indirect misses. (Count)
system.cpu0.branchPred.indirectMispredicted            0                       # Number of mispredicted indirect branches. (Count)
system.cpu0.branchPred.btb.lookups::NoBranch          451      1.25%      1.25% # Number of BTB lookups (Count)
system.cpu0.branchPred.btb.lookups::Return         1497      4.15%      5.40% # Number of BTB lookups (Count)
system.cpu0.branchPred.btb.lookups::CallDirect         1666      4.62%     10.01% # Number of BTB lookups (Count)
system.cpu0.branchPred.btb.lookups::CallIndirect          304      0.84%     10.85% # Number of BTB lookups (Count)
system.cpu0.branchPred.btb.lookups::DirectCond        30055     83.27%     94.12% # Number of BTB lookups (Count)
system.cpu0.branchPred.btb.lookups::DirectUncond         1597      4.42%     98.55% # Number of BTB lookups (Count)
system.cpu0.branchPred.btb.lookups::IndirectCond            0      0.00%     98.55% # Number of BTB lookups (Count)
system.cpu0.branchPred.btb.lookups::IndirectUncond          524      1.45%    100.00% # Number of BTB lookups (Count)
system.cpu0.branchPred.btb.lookups::total        36094                       # Number of BTB lookups (Count)
system.cpu0.branchPred.btb.misses::NoBranch          165      0.92%      0.92% # Number of BTB misses (Count)
system.cpu0.branchPred.btb.misses::Return         1497      8.32%      9.23% # Number of BTB misses (Count)
system.cpu0.branchPred.btb.misses::CallDirect          387      2.15%     11.38% # Number of BTB misses (Count)
system.cpu0.branchPred.btb.misses::CallIndirect          304      1.69%     13.07% # Number of BTB misses (Count)
system.cpu0.branchPred.btb.misses::DirectCond        14769     82.04%     95.11% # Number of BTB misses (Count)
system.cpu0.branchPred.btb.misses::DirectUncond          357      1.98%     97.09% # Number of BTB misses (Count)
system.cpu0.branchPred.btb.misses::IndirectCond            0      0.00%     97.09% # Number of BTB misses (Count)
system.cpu0.branchPred.btb.misses::IndirectUncond          524      2.91%    100.00% # Number of BTB misses (Count)
system.cpu0.branchPred.btb.misses::total        18003                       # Number of BTB misses (Count)
system.cpu0.branchPred.btb.updates::NoBranch            0      0.00%      0.00% # Number of BTB updates (Count)
system.cpu0.branchPred.btb.updates::Return            0      0.00%      0.00% # Number of BTB updates (Count)
system.cpu0.branchPred.btb.updates::CallDirect          261     13.95%     13.95% # Number of BTB updates (Count)
system.cpu0.branchPred.btb.updates::CallIndirect            0      0.00%     13.95% # Number of BTB updates (Count)
system.cpu0.branchPred.btb.updates::DirectCond         1347     71.99%     85.94% # Number of BTB updates (Count)
system.cpu0.branchPred.btb.updates::DirectUncond          263     14.06%    100.00% # Number of BTB updates (Count)
system.cpu0.branchPred.btb.updates::IndirectCond            0      0.00%    100.00% # Number of BTB updates (Count)
system.cpu0.branchPred.btb.updates::IndirectUncond            0      0.00%    100.00% # Number of BTB updates (Count)
system.cpu0.branchPred.btb.updates::total         1871                       # Number of BTB updates (Count)
system.cpu0.branchPred.btb.mispredict::NoBranch            0      0.00%      0.00% # Number of BTB mispredictions. No target found or target wrong. (Count)
system.cpu0.branchPred.btb.mispredict::Return            0      0.00%      0.00% # Number of BTB mispredictions. No target found or target wrong. (Count)
system.cpu0.branchPred.btb.mispredict::CallDirect          261     13.95%     13.95% # Number of BTB mispredictions. No target found or target wrong. (Count)
system.cpu0.branchPred.btb.mispredict::CallIndirect            0      0.00%     13.95% # Number of BTB mispredictions. No target found or target wrong. (Count)
system.cpu0.branchPred.btb.mispredict::DirectCond         1347     71.99%     85.94% # Number of BTB mispredictions. No target found or target wrong. (Count)
system.cpu0.branchPred.btb.mispredict::DirectUncond          263     14.06%    100.00% # Number of BTB mispredictions. No target found or target wrong. (Count)
system.cpu0.branchPred.btb.mispredict::IndirectCond            0      0.00%    100.00% # Number of BTB mispredictions. No target found or target wrong. (Count)
system.cpu0.branchPred.btb.mispredict::IndirectUncond            0      0.00%    100.00% # Number of BTB mispredictions. No target found or target wrong. (Count)
system.cpu0.branchPred.btb.mispredict::total         1871                       # Number of BTB mispredictions. No target found or target wrong. (Count)
system.cpu0.branchPred.btb.power_state.pwrStateResidencyTicks::UNDEFINED    323716000                       # Cumulative time (in ticks) in various power states (Tick)
system.cpu0.branchPred.indirectBranchPred.lookups          828                       # Number of lookups (Count)
system.cpu0.branchPred.indirectBranchPred.hits          141                       # Number of hits of a tag (Count)
system.cpu0.branchPred.indirectBranchPred.misses          687                       # Number of misses (Count)
system.cpu0.branchPred.indirectBranchPred.targetRecords          280                       # Number of targets that where recorded/installed in the cache (Count)
system.cpu0.branchPred.indirectBranchPred.indirectRecords         1108                       # Number of indirect branches/calls recorded in the indirect hist (Count)
system.cpu0.branchPred.indirectBranchPred.speculativeOverflows            1                       # Number of times more than the allowed capacity for speculative branches/calls where in flight and destroy the path history (Count)
system.cpu0.branchPred.ras.pushes                2614                       # Number of times a PC was pushed onto the RAS (Count)
system.cpu0.branchPred.ras.pops                  2609                       # Number of times a PC was poped from the RAS (Count)
system.cpu0.branchPred.ras.squashes              1756                       # Number of times the stack operation was squashed due to wrong speculation. (Count)
system.cpu0.branchPred.ras.used                   853                       # Number of times the RAS is the provider (Count)
system.cpu0.branchPred.ras.correct                853                       # Number of times the RAS is the provider and the prediction is correct (Count)
system.cpu0.branchPred.ras.incorrect                0                       # Number of times the RAS is the provider and the prediction is wrong (Count)
system.cpu0.commit.commitSquashedInsts         103116                       # The number of squashed insts skipped by commit (Count)
system.cpu0.commit.commitNonSpecStalls             60                       # The number of times commit has been forced to stall to communicate backwards (Count)
system.cpu0.commit.branchMispredicts             2351                       # The number of times a branch was mispredicted (Count)
system.cpu0.commit.numCommittedDist::samples       301685                       # Number of insts commited each cycle (Count)
system.cpu0.commit.numCommittedDist::mean     0.665316                       # Number of insts commited each cycle (Count)
system.cpu0.commit.numCommittedDist::stdev     1.846425                       # Number of insts commited each cycle (Count)
system.cpu0.commit.numCommittedDist::underflows            0      0.00%      0.00% # Number of insts commited each cycle (Count)
system.cpu0.commit.numCommittedDist::0         251282     83.29%     83.29% # Number of insts commited each cycle (Count)
system.cpu0.commit.numCommittedDist::1          11420      3.79%     87.08% # Number of insts commited each cycle (Count)
system.cpu0.commit.numCommittedDist::2           8350      2.77%     89.85% # Number of insts commited each cycle (Count)
system.cpu0.commit.numCommittedDist::3           8953      2.97%     92.81% # Number of insts commited each cycle (Count)
system.cpu0.commit.numCommittedDist::4           3455      1.15%     93.96% # Number of insts commited each cycle (Count)
system.cpu0.commit.numCommittedDist::5           3479      1.15%     95.11% # Number of insts commited each cycle (Count)
system.cpu0.commit.numCommittedDist::6           1180      0.39%     95.50% # Number of insts commited each cycle (Count)
system.cpu0.commit.numCommittedDist::7           1086      0.36%     95.86% # Number of insts commited each cycle (Count)
system.cpu0.commit.numCommittedDist::8          12480      4.14%    100.00% # Number of insts commited each cycle (Count)
system.cpu0.commit.numCommittedDist::overflows            0      0.00%    100.00% # Number of insts commited each cycle (Count)
system.cpu0.commit.numCommittedDist::min_value            0                       # Number of insts commited each cycle (Count)
system.cpu0.commit.numCommittedDist::max_value            8                       # Number of insts commited each cycle (Count)
system.cpu0.commit.numCommittedDist::total       301685                       # Number of insts commited each cycle (Count)
system.cpu0.commit.amos                             0                       # Number of atomic instructions committed (Count)
system.cpu0.commit.membars                         28                       # Number of memory barriers committed (Count)
system.cpu0.commit.functionCalls                  858                       # Number of function calls committed. (Count)
system.cpu0.commit.committedInstType_0::No_OpClass         1287      0.64%      0.64% # Class of committed instruction (Count)
system.cpu0.commit.committedInstType_0::IntAlu       152032     75.74%     76.39% # Class of committed instruction (Count)
system.cpu0.commit.committedInstType_0::IntMult           15      0.01%     76.39% # Class of committed instruction (Count)
system.cpu0.commit.committedInstType_0::IntDiv         1647      0.82%     77.21% # Class of committed instruction (Count)
system.cpu0.commit.committedInstType_0::FloatAdd          355      0.18%     77.39% # Class of committed instruction (Count)
system.cpu0.commit.committedInstType_0::FloatCmp            0      0.00%     77.39% # Class of committed instruction (Count)
system.cpu0.commit.committedInstType_0::FloatCvt           32      0.02%     77.41% # Class of committed instruction (Count)
system.cpu0.commit.committedInstType_0::FloatMult            0      0.00%     77.41% # Class of committed instruction (Count)
system.cpu0.commit.committedInstType_0::FloatMultAcc            0      0.00%     77.41% # Class of committed instruction (Count)
system.cpu0.commit.committedInstType_0::FloatDiv            0      0.00%     77.41% # Class of committed instruction (Count)
system.cpu0.commit.committedInstType_0::FloatMisc            0      0.00%     77.41% # Class of committed instruction (Count)
system.cpu0.commit.committedInstType_0::FloatSqrt            0      0.00%     77.41% # Class of committed instruction (Count)
system.cpu0.commit.committedInstType_0::SimdAdd          474      0.24%     77.64% # Class of committed instruction (Count)
system.cpu0.commit.committedInstType_0::SimdAddAcc            0      0.00%     77.64% # Class of committed instruction (Count)
system.cpu0.commit.committedInstType_0::SimdAlu         1063      0.53%     78.17% # Class of committed instruction (Count)
system.cpu0.commit.committedInstType_0::SimdCmp            0      0.00%     78.17% # Class of committed instruction (Count)
system.cpu0.commit.committedInstType_0::SimdCvt         1066      0.53%     78.70% # Class of committed instruction (Count)
system.cpu0.commit.committedInstType_0::SimdMisc          972      0.48%     79.19% # Class of committed instruction (Count)
system.cpu0.commit.committedInstType_0::SimdMult            0      0.00%     79.19% # Class of committed instruction (Count)
system.cpu0.commit.committedInstType_0::SimdMultAcc            0      0.00%     79.19% # Class of committed instruction (Count)
system.cpu0.commit.committedInstType_0::SimdMatMultAcc            0      0.00%     79.19% # Class of committed instruction (Count)
system.cpu0.commit.committedInstType_0::SimdShift          367      0.18%     79.37% # Class of committed instruction (Count)
system.cpu0.commit.committedInstType_0::SimdShiftAcc            0      0.00%     79.37% # Class of committed instruction (Count)
system.cpu0.commit.committedInstType_0::SimdDiv            0      0.00%     79.37% # Class of committed instruction (Count)
system.cpu0.commit.committedInstType_0::SimdSqrt            0      0.00%     79.37% # Class of committed instruction (Count)
system.cpu0.commit.committedInstType_0::SimdFloatAdd            0      0.00%     79.37% # Class of committed instruction (Count)
system.cpu0.commit.committedInstType_0::SimdFloatAlu            0      0.00%     79.37% # Class of committed instruction (Count)
system.cpu0.commit.committedInstType_0::SimdFloatCmp            0      0.00%     79.37% # Class of committed instruction (Count)
system.cpu0.commit.committedInstType_0::SimdFloatCvt            0      0.00%     79.37% # Class of committed instruction (Count)
system.cpu0.commit.committedInstType_0::SimdFloatDiv            0      0.00%     79.37% # Class of committed instruction (Count)
system.cpu0.commit.committedInstType_0::SimdFloatMisc            0      0.00%     79.37% # Class of committed instruction (Count)
system.cpu0.commit.committedInstType_0::SimdFloatMult            0      0.00%     79.37% # Class of committed instruction (Count)
system.cpu0.commit.committedInstType_0::SimdFloatMultAcc            0      0.00%     79.37% # Class of committed instruction (Count)
system.cpu0.commit.committedInstType_0::SimdFloatMatMultAcc            0      0.00%     79.37% # Class of committed instruction (Count)
system.cpu0.commit.committedInstType_0::SimdFloatSqrt            0      0.00%     79.37% # Class of committed instruction (Count)
system.cpu0.commit.committedInstType_0::SimdReduceAdd            0      0.00%     79.37% # Class of committed instruction (Count)
system.cpu0.commit.committedInstType_0::SimdReduceAlu            0      0.00%     79.37% # Class of committed instruction (Count)
system.cpu0.commit.committedInstType_0::SimdReduceCmp            0      0.00%     79.37% # Class of committed instruction (Count)
system.cpu0.commit.committedInstType_0::SimdFloatReduceAdd            0      0.00%     79.37% # Class of committed instruction (Count)
system.cpu0.commit.committedInstType_0::SimdFloatReduceCmp            0      0.00%     79.37% # Class of committed instruction (Count)
system.cpu0.commit.committedInstType_0::SimdAes            0      0.00%     79.37% # Class of committed instruction (Count)
system.cpu0.commit.committedInstType_0::SimdAesMix            0      0.00%     79.37% # Class of committed instruction (Count)
system.cpu0.commit.committedInstType_0::SimdSha1Hash            0      0.00%     79.37% # Class of committed instruction (Count)
system.cpu0.commit.committedInstType_0::SimdSha1Hash2            0      0.00%     79.37% # Class of committed instruction (Count)
system.cpu0.commit.committedInstType_0::SimdSha256Hash            0      0.00%     79.37% # Class of committed instruction (Count)
system.cpu0.commit.committedInstType_0::SimdSha256Hash2            0      0.00%     79.37% # Class of committed instruction (Count)
system.cpu0.commit.committedInstType_0::SimdShaSigma2            0      0.00%     79.37% # Class of committed instruction (Count)
system.cpu0.commit.committedInstType_0::SimdShaSigma3            0      0.00%     79.37% # Class of committed instruction (Count)
system.cpu0.commit.committedInstType_0::SimdPredAlu            0      0.00%     79.37% # Class of committed instruction (Count)
system.cpu0.commit.committedInstType_0::Matrix            0      0.00%     79.37% # Class of committed instruction (Count)
system.cpu0.commit.committedInstType_0::MatrixMov            0      0.00%     79.37% # Class of committed instruction (Count)
system.cpu0.commit.committedInstType_0::MatrixOP            0      0.00%     79.37% # Class of committed instruction (Count)
system.cpu0.commit.committedInstType_0::MemRead        26879     13.39%     92.76% # Class of committed instruction (Count)
system.cpu0.commit.committedInstType_0::MemWrite        12309      6.13%     98.89% # Class of committed instruction (Count)
system.cpu0.commit.committedInstType_0::FloatMemRead         1272      0.63%     99.53% # Class of committed instruction (Count)
system.cpu0.commit.committedInstType_0::FloatMemWrite          946      0.47%    100.00% # Class of committed instruction (Count)
system.cpu0.commit.committedInstType_0::IprAccess            0      0.00%    100.00% # Class of committed instruction (Count)
system.cpu0.commit.committedInstType_0::InstPrefetch            0      0.00%    100.00% # Class of committed instruction (Count)
system.cpu0.commit.committedInstType_0::VectorUnitStrideLoad            0      0.00%    100.00% # Class of committed instruction (Count)
system.cpu0.commit.committedInstType_0::VectorUnitStrideStore            0      0.00%    100.00% # Class of committed instruction (Count)
system.cpu0.commit.committedInstType_0::VectorUnitStrideMaskLoad            0      0.00%    100.00% # Class of committed instruction (Count)
system.cpu0.commit.committedInstType_0::VectorUnitStrideMaskStore            0      0.00%    100.00% # Class of committed instruction (Count)
system.cpu0.commit.committedInstType_0::VectorStridedLoad            0      0.00%    100.00% # Class of committed instruction (Count)
system.cpu0.commit.committedInstType_0::VectorStridedStore            0      0.00%    100.00% # Class of committed instruction (Count)
system.cpu0.commit.committedInstType_0::VectorIndexedLoad            0      0.00%    100.00% # Class of committed instruction (Count)
system.cpu0.commit.committedInstType_0::VectorIndexedStore            0      0.00%    100.00% # Class of committed instruction (Count)
system.cpu0.commit.committedInstType_0::VectorUnitStrideFaultOnlyFirstLoad            0      0.00%    100.00% # Class of committed instruction (Count)
system.cpu0.commit.committedInstType_0::VectorWholeRegisterLoad            0      0.00%    100.00% # Class of committed instruction (Count)
system.cpu0.commit.committedInstType_0::VectorWholeRegisterStore            0      0.00%    100.00% # Class of committed instruction (Count)
system.cpu0.commit.committedInstType_0::VectorIntegerArith            0      0.00%    100.00% # Class of committed instruction (Count)
system.cpu0.commit.committedInstType_0::VectorFloatArith            0      0.00%    100.00% # Class of committed instruction (Count)
system.cpu0.commit.committedInstType_0::VectorFloatConvert            0      0.00%    100.00% # Class of committed instruction (Count)
system.cpu0.commit.committedInstType_0::VectorIntegerReduce            0      0.00%    100.00% # Class of committed instruction (Count)
system.cpu0.commit.committedInstType_0::VectorFloatReduce            0      0.00%    100.00% # Class of committed instruction (Count)
system.cpu0.commit.committedInstType_0::VectorMisc            0      0.00%    100.00% # Class of committed instruction (Count)
system.cpu0.commit.committedInstType_0::VectorIntegerExtension            0      0.00%    100.00% # Class of committed instruction (Count)
system.cpu0.commit.committedInstType_0::VectorConfig            0      0.00%    100.00% # Class of committed instruction (Count)
system.cpu0.commit.committedInstType_0::total       200716                       # Class of committed instruction (Count)
system.cpu0.commit.commitEligibleSamples        12480                       # number cycles where commit BW limit reached (Cycle)
system.cpu0.commitStats0.numInsts              109350                       # Number of instructions committed (thread level) (Count)
system.cpu0.commitStats0.numOps                200716                       # Number of ops (including micro ops) committed (thread level) (Count)
system.cpu0.commitStats0.numInstsNotNOP        109350                       # Number of instructions committed excluding NOPs or prefetches (Count)
system.cpu0.commitStats0.numOpsNotNOP          200716                       # Number of Ops (including micro ops) Simulated (Count)
system.cpu0.commitStats0.cpi                 4.018592                       # CPI: cycles per instruction (thread level) ((Cycle/Count))
system.cpu0.commitStats0.ipc                 0.248843                       # IPC: instructions per cycle (thread level) ((Count/Cycle))
system.cpu0.commitStats0.numMemRefs             41406                       # Number of memory references committed (Count)
system.cpu0.commitStats0.numFpInsts              6819                       # Number of float instructions (Count)
system.cpu0.commitStats0.numIntInsts           194561                       # Number of integer instructions (Count)
system.cpu0.commitStats0.numLoadInsts           28151                       # Number of load instructions (Count)
system.cpu0.commitStats0.numStoreInsts          13255                       # Number of store instructions (Count)
system.cpu0.commitStats0.numVecInsts                0                       # Number of vector instructions (Count)
system.cpu0.commitStats0.committedInstType::No_OpClass         1287      0.64%      0.64% # Class of committed instruction. (Count)
system.cpu0.commitStats0.committedInstType::IntAlu       152032     75.74%     76.39% # Class of committed instruction. (Count)
system.cpu0.commitStats0.committedInstType::IntMult           15      0.01%     76.39% # Class of committed instruction. (Count)
system.cpu0.commitStats0.committedInstType::IntDiv         1647      0.82%     77.21% # Class of committed instruction. (Count)
system.cpu0.commitStats0.committedInstType::FloatAdd          355      0.18%     77.39% # Class of committed instruction. (Count)
system.cpu0.commitStats0.committedInstType::FloatCmp            0      0.00%     77.39% # Class of committed instruction. (Count)
system.cpu0.commitStats0.committedInstType::FloatCvt           32      0.02%     77.41% # Class of committed instruction. (Count)
system.cpu0.commitStats0.committedInstType::FloatMult            0      0.00%     77.41% # Class of committed instruction. (Count)
system.cpu0.commitStats0.committedInstType::FloatMultAcc            0      0.00%     77.41% # Class of committed instruction. (Count)
system.cpu0.commitStats0.committedInstType::FloatDiv            0      0.00%     77.41% # Class of committed instruction. (Count)
system.cpu0.commitStats0.committedInstType::FloatMisc            0      0.00%     77.41% # Class of committed instruction. (Count)
system.cpu0.commitStats0.committedInstType::FloatSqrt            0      0.00%     77.41% # Class of committed instruction. (Count)
system.cpu0.commitStats0.committedInstType::SimdAdd          474      0.24%     77.64% # Class of committed instruction. (Count)
system.cpu0.commitStats0.committedInstType::SimdAddAcc            0      0.00%     77.64% # Class of committed instruction. (Count)
system.cpu0.commitStats0.committedInstType::SimdAlu         1063      0.53%     78.17% # Class of committed instruction. (Count)
system.cpu0.commitStats0.committedInstType::SimdCmp            0      0.00%     78.17% # Class of committed instruction. (Count)
system.cpu0.commitStats0.committedInstType::SimdCvt         1066      0.53%     78.70% # Class of committed instruction. (Count)
system.cpu0.commitStats0.committedInstType::SimdMisc          972      0.48%     79.19% # Class of committed instruction. (Count)
system.cpu0.commitStats0.committedInstType::SimdMult            0      0.00%     79.19% # Class of committed instruction. (Count)
system.cpu0.commitStats0.committedInstType::SimdMultAcc            0      0.00%     79.19% # Class of committed instruction. (Count)
system.cpu0.commitStats0.committedInstType::SimdMatMultAcc            0      0.00%     79.19% # Class of committed instruction. (Count)
system.cpu0.commitStats0.committedInstType::SimdShift          367      0.18%     79.37% # Class of committed instruction. (Count)
system.cpu0.commitStats0.committedInstType::SimdShiftAcc            0      0.00%     79.37% # Class of committed instruction. (Count)
system.cpu0.commitStats0.committedInstType::SimdDiv            0      0.00%     79.37% # Class of committed instruction. (Count)
system.cpu0.commitStats0.committedInstType::SimdSqrt            0      0.00%     79.37% # Class of committed instruction. (Count)
system.cpu0.commitStats0.committedInstType::SimdFloatAdd            0      0.00%     79.37% # Class of committed instruction. (Count)
system.cpu0.commitStats0.committedInstType::SimdFloatAlu            0      0.00%     79.37% # Class of committed instruction. (Count)
system.cpu0.commitStats0.committedInstType::SimdFloatCmp            0      0.00%     79.37% # Class of committed instruction. (Count)
system.cpu0.commitStats0.committedInstType::SimdFloatCvt            0      0.00%     79.37% # Class of committed instruction. (Count)
system.cpu0.commitStats0.committedInstType::SimdFloatDiv            0      0.00%     79.37% # Class of committed instruction. (Count)
system.cpu0.commitStats0.committedInstType::SimdFloatMisc            0      0.00%     79.37% # Class of committed instruction. (Count)
system.cpu0.commitStats0.committedInstType::SimdFloatMult            0      0.00%     79.37% # Class of committed instruction. (Count)
system.cpu0.commitStats0.committedInstType::SimdFloatMultAcc            0      0.00%     79.37% # Class of committed instruction. (Count)
system.cpu0.commitStats0.committedInstType::SimdFloatMatMultAcc            0      0.00%     79.37% # Class of committed instruction. (Count)
system.cpu0.commitStats0.committedInstType::SimdFloatSqrt            0      0.00%     79.37% # Class of committed instruction. (Count)
system.cpu0.commitStats0.committedInstType::SimdReduceAdd            0      0.00%     79.37% # Class of committed instruction. (Count)
system.cpu0.commitStats0.committedInstType::SimdReduceAlu            0      0.00%     79.37% # Class of committed instruction. (Count)
system.cpu0.commitStats0.committedInstType::SimdReduceCmp            0      0.00%     79.37% # Class of committed instruction. (Count)
system.cpu0.commitStats0.committedInstType::SimdFloatReduceAdd            0      0.00%     79.37% # Class of committed instruction. (Count)
system.cpu0.commitStats0.committedInstType::SimdFloatReduceCmp            0      0.00%     79.37% # Class of committed instruction. (Count)
system.cpu0.commitStats0.committedInstType::SimdAes            0      0.00%     79.37% # Class of committed instruction. (Count)
system.cpu0.commitStats0.committedInstType::SimdAesMix            0      0.00%     79.37% # Class of committed instruction. (Count)
system.cpu0.commitStats0.committedInstType::SimdSha1Hash            0      0.00%     79.37% # Class of committed instruction. (Count)
system.cpu0.commitStats0.committedInstType::SimdSha1Hash2            0      0.00%     79.37% # Class of committed instruction. (Count)
system.cpu0.commitStats0.committedInstType::SimdSha256Hash            0      0.00%     79.37% # Class of committed instruction. (Count)
system.cpu0.commitStats0.committedInstType::SimdSha256Hash2            0      0.00%     79.37% # Class of committed instruction. (Count)
system.cpu0.commitStats0.committedInstType::SimdShaSigma2            0      0.00%     79.37% # Class of committed instruction. (Count)
system.cpu0.commitStats0.committedInstType::SimdShaSigma3            0      0.00%     79.37% # Class of committed instruction. (Count)
system.cpu0.commitStats0.committedInstType::SimdPredAlu            0      0.00%     79.37% # Class of committed instruction. (Count)
system.cpu0.commitStats0.committedInstType::Matrix            0      0.00%     79.37% # Class of committed instruction. (Count)
system.cpu0.commitStats0.committedInstType::MatrixMov            0      0.00%     79.37% # Class of committed instruction. (Count)
system.cpu0.commitStats0.committedInstType::MatrixOP            0      0.00%     79.37% # Class of committed instruction. (Count)
system.cpu0.commitStats0.committedInstType::MemRead        26879     13.39%     92.76% # Class of committed instruction. (Count)
system.cpu0.commitStats0.committedInstType::MemWrite        12309      6.13%     98.89% # Class of committed instruction. (Count)
system.cpu0.commitStats0.committedInstType::FloatMemRead         1272      0.63%     99.53% # Class of committed instruction. (Count)
system.cpu0.commitStats0.committedInstType::FloatMemWrite          946      0.47%    100.00% # Class of committed instruction. (Count)
system.cpu0.commitStats0.committedInstType::IprAccess            0      0.00%    100.00% # Class of committed instruction. (Count)
system.cpu0.commitStats0.committedInstType::InstPrefetch            0      0.00%    100.00% # Class of committed instruction. (Count)
system.cpu0.commitStats0.committedInstType::VectorUnitStrideLoad            0      0.00%    100.00% # Class of committed instruction. (Count)
system.cpu0.commitStats0.committedInstType::VectorUnitStrideStore            0      0.00%    100.00% # Class of committed instruction. (Count)
system.cpu0.commitStats0.committedInstType::VectorUnitStrideMaskLoad            0      0.00%    100.00% # Class of committed instruction. (Count)
system.cpu0.commitStats0.committedInstType::VectorUnitStrideMaskStore            0      0.00%    100.00% # Class of committed instruction. (Count)
system.cpu0.commitStats0.committedInstType::VectorStridedLoad            0      0.00%    100.00% # Class of committed instruction. (Count)
system.cpu0.commitStats0.committedInstType::VectorStridedStore            0      0.00%    100.00% # Class of committed instruction. (Count)
system.cpu0.commitStats0.committedInstType::VectorIndexedLoad            0      0.00%    100.00% # Class of committed instruction. (Count)
system.cpu0.commitStats0.committedInstType::VectorIndexedStore            0      0.00%    100.00% # Class of committed instruction. (Count)
system.cpu0.commitStats0.committedInstType::VectorUnitStrideFaultOnlyFirstLoad            0      0.00%    100.00% # Class of committed instruction. (Count)
system.cpu0.commitStats0.committedInstType::VectorWholeRegisterLoad            0      0.00%    100.00% # Class of committed instruction. (Count)
system.cpu0.commitStats0.committedInstType::VectorWholeRegisterStore            0      0.00%    100.00% # Class of committed instruction. (Count)
system.cpu0.commitStats0.committedInstType::VectorIntegerArith            0      0.00%    100.00% # Class of committed instruction. (Count)
system.cpu0.commitStats0.committedInstType::VectorFloatArith            0      0.00%    100.00% # Class of committed instruction. (Count)
system.cpu0.commitStats0.committedInstType::VectorFloatConvert            0      0.00%    100.00% # Class of committed instruction. (Count)
system.cpu0.commitStats0.committedInstType::VectorIntegerReduce            0      0.00%    100.00% # Class of committed instruction. (Count)
system.cpu0.commitStats0.committedInstType::VectorFloatReduce            0      0.00%    100.00% # Class of committed instruction. (Count)
system.cpu0.commitStats0.committedInstType::VectorMisc            0      0.00%    100.00% # Class of committed instruction. (Count)
system.cpu0.commitStats0.committedInstType::VectorIntegerExtension            0      0.00%    100.00% # Class of committed instruction. (Count)
system.cpu0.commitStats0.committedInstType::VectorConfig            0      0.00%    100.00% # Class of committed instruction. (Count)
system.cpu0.commitStats0.committedInstType::total       200716                       # Class of committed instruction. (Count)
system.cpu0.commitStats0.committedControl::IsControl        20587                       # Class of control type instructions committed (Count)
system.cpu0.commitStats0.committedControl::IsDirectControl        19340                       # Class of control type instructions committed (Count)
system.cpu0.commitStats0.committedControl::IsIndirectControl         1195                       # Class of control type instructions committed (Count)
system.cpu0.commitStats0.committedControl::IsCondControl        17762                       # Class of control type instructions committed (Count)
system.cpu0.commitStats0.committedControl::IsUncondControl         2773                       # Class of control type instructions committed (Count)
system.cpu0.commitStats0.committedControl::IsCall          858                       # Class of control type instructions committed (Count)
system.cpu0.commitStats0.committedControl::IsReturn          853                       # Class of control type instructions committed (Count)
system.cpu0.decode.idleCycles                   73728                       # Number of cycles decode is idle (Cycle)
system.cpu0.decode.blockedCycles               191583                       # Number of cycles decode is blocked (Cycle)
system.cpu0.decode.runCycles                    41066                       # Number of cycles decode is running (Cycle)
system.cpu0.decode.unblockCycles                 7519                       # Number of cycles decode is unblocking (Cycle)
system.cpu0.decode.squashCycles                  2547                       # Number of cycles decode is squashing (Cycle)
system.cpu0.decode.branchResolved               12431                       # Number of times decode resolved a branch (Count)
system.cpu0.decode.branchMispred                  557                       # Number of times decode detected a branch misprediction (Count)
system.cpu0.decode.decodedInsts                328951                       # Number of instructions handled by decode (Count)
system.cpu0.decode.squashedInsts                 2911                       # Number of squashed instructions handled by decode (Count)
system.cpu0.executeStats0.numInsts             266340                       # Number of executed instructions (Count)
system.cpu0.executeStats0.numNop                    0                       # Number of nop insts executed (Count)
system.cpu0.executeStats0.numBranches           24348                       # Number of branches executed (Count)
system.cpu0.executeStats0.numLoadInsts          39755                       # Number of load instructions executed (Count)
system.cpu0.executeStats0.numStoreInsts         17197                       # Number of stores executed (Count)
system.cpu0.executeStats0.instRate           0.606099                       # Inst execution rate ((Count/Cycle))
system.cpu0.executeStats0.numCCRegReads        137419                       # Number of times the CC registers were read (Count)
system.cpu0.executeStats0.numCCRegWrites        94164                       # Number of times the CC registers were written (Count)
system.cpu0.executeStats0.numFpRegReads         16451                       # Number of times the floating registers were read (Count)
[...]
system.ruby.network.data_traffic_distribution.n4.n11            0                       (Unspecified)
system.ruby.network.data_traffic_distribution.n4.n12            0                       (Unspecified)
system.ruby.network.data_traffic_distribution.n4.n13            0                       (Unspecified)
system.ruby.network.data_traffic_distribution.n4.n14            0                       (Unspecified)
system.ruby.network.data_traffic_distribution.n4.n15            0                       (Unspecified)
system.ruby.network.data_traffic_distribution.n4.n2            0                       (Unspecified)
system.ruby.network.data_traffic_distribution.n4.n3            0                       (Unspecified)
system.ruby.network.data_traffic_distribution.n4.n4            0                       (Unspecified)
system.ruby.network.data_traffic_distribution.n4.n5            0                       (Unspecified)
system.ruby.network.data_traffic_distribution.n4.n6            0                       (Unspecified)
system.ruby.network.data_traffic_distribution.n4.n7            0                       (Unspecified)
system.ruby.network.data_traffic_distribution.n4.n8            0                       (Unspecified)
system.ruby.network.data_traffic_distribution.n4.n9            0                       (Unspecified)
system.ruby.network.data_traffic_distribution.n5.n0         3147                       (Unspecified)
system.ruby.network.data_traffic_distribution.n5.n1           11                       (Unspecified)
system.ruby.network.data_traffic_distribution.n5.n10            0                       (Unspecified)
system.ruby.network.data_traffic_distribution.n5.n11            0                       (Unspecified)
system.ruby.network.data_traffic_distribution.n5.n12            0                       (Unspecified)
system.ruby.network.data_traffic_distribution.n5.n13            0                       (Unspecified)
system.ruby.network.data_traffic_distribution.n5.n14            0                       (Unspecified)
system.ruby.network.data_traffic_distribution.n5.n15            0                       (Unspecified)
system.ruby.network.data_traffic_distribution.n5.n2            0                       (Unspecified)
system.ruby.network.data_traffic_distribution.n5.n3            0                       (Unspecified)
system.ruby.network.data_traffic_distribution.n5.n4           11                       (Unspecified)
system.ruby.network.data_traffic_distribution.n5.n5            0                       (Unspecified)
system.ruby.network.data_traffic_distribution.n5.n6            1                       (Unspecified)
system.ruby.network.data_traffic_distribution.n5.n7            0                       (Unspecified)
system.ruby.network.data_traffic_distribution.n5.n8            0                       (Unspecified)
system.ruby.network.data_traffic_distribution.n5.n9            0                       (Unspecified)
system.ruby.network.data_traffic_distribution.n6.n0         3136                       (Unspecified)
system.ruby.network.data_traffic_distribution.n6.n1            0                       (Unspecified)
system.ruby.network.data_traffic_distribution.n6.n10            0                       (Unspecified)
system.ruby.network.data_traffic_distribution.n6.n11            0                       (Unspecified)
system.ruby.network.data_traffic_distribution.n6.n12            0                       (Unspecified)
system.ruby.network.data_traffic_distribution.n6.n13            0                       (Unspecified)
system.ruby.network.data_traffic_distribution.n6.n14            0                       (Unspecified)
system.ruby.network.data_traffic_distribution.n6.n15            0                       (Unspecified)
system.ruby.network.data_traffic_distribution.n6.n2            0                       (Unspecified)
system.ruby.network.data_traffic_distribution.n6.n3            0                       (Unspecified)
system.ruby.network.data_traffic_distribution.n6.n4            0                       (Unspecified)
system.ruby.network.data_traffic_distribution.n6.n5           18                       (Unspecified)
system.ruby.network.data_traffic_distribution.n6.n6            0                       (Unspecified)
system.ruby.network.data_traffic_distribution.n6.n7           30                       (Unspecified)
system.ruby.network.data_traffic_distribution.n6.n8            0                       (Unspecified)
system.ruby.network.data_traffic_distribution.n6.n9            0                       (Unspecified)
system.ruby.network.data_traffic_distribution.n7.n0         3048                       (Unspecified)
system.ruby.network.data_traffic_distribution.n7.n1            0                       (Unspecified)
system.ruby.network.data_traffic_distribution.n7.n10            0                       (Unspecified)
system.ruby.network.data_traffic_distribution.n7.n11            0                       (Unspecified)
system.ruby.network.data_traffic_distribution.n7.n12            0                       (Unspecified)
system.ruby.network.data_traffic_distribution.n7.n13            0                       (Unspecified)
system.ruby.network.data_traffic_distribution.n7.n14            0                       (Unspecified)
system.ruby.network.data_traffic_distribution.n7.n15            0                       (Unspecified)
system.ruby.network.data_traffic_distribution.n7.n2            0                       (Unspecified)
system.ruby.network.data_traffic_distribution.n7.n3            4                       (Unspecified)
system.ruby.network.data_traffic_distribution.n7.n4            0                       (Unspecified)
system.ruby.network.data_traffic_distribution.n7.n5            0                       (Unspecified)
system.ruby.network.data_traffic_distribution.n7.n6          108                       (Unspecified)
system.ruby.network.data_traffic_distribution.n7.n7            0                       (Unspecified)
system.ruby.network.data_traffic_distribution.n7.n8            0                       (Unspecified)
system.ruby.network.data_traffic_distribution.n7.n9            0                       (Unspecified)
system.ruby.network.data_traffic_distribution.n8.n0         3051                       (Unspecified)
system.ruby.network.data_traffic_distribution.n8.n1            0                       (Unspecified)
system.ruby.network.data_traffic_distribution.n8.n10            0                       (Unspecified)
system.ruby.network.data_traffic_distribution.n8.n11            0                       (Unspecified)
system.ruby.network.data_traffic_distribution.n8.n12           12                       (Unspecified)
system.ruby.network.data_traffic_distribution.n8.n13            0                       (Unspecified)
system.ruby.network.data_traffic_distribution.n8.n14            0                       (Unspecified)
system.ruby.network.data_traffic_distribution.n8.n15            0                       (Unspecified)
system.ruby.network.data_traffic_distribution.n8.n2            0                       (Unspecified)
system.ruby.network.data_traffic_distribution.n8.n3            0                       (Unspecified)
system.ruby.network.data_traffic_distribution.n8.n4            0                       (Unspecified)
system.ruby.network.data_traffic_distribution.n8.n5            0                       (Unspecified)
system.ruby.network.data_traffic_distribution.n8.n6            0                       (Unspecified)
system.ruby.network.data_traffic_distribution.n8.n7            0                       (Unspecified)
system.ruby.network.data_traffic_distribution.n8.n8            0                       (Unspecified)
system.ruby.network.data_traffic_distribution.n8.n9           75                       (Unspecified)
system.ruby.network.data_traffic_distribution.n9.n0         3233                       (Unspecified)
system.ruby.network.data_traffic_distribution.n9.n1            0                       (Unspecified)
system.ruby.network.data_traffic_distribution.n9.n10            0                       (Unspecified)
system.ruby.network.data_traffic_distribution.n9.n11            0                       (Unspecified)
system.ruby.network.data_traffic_distribution.n9.n12            0                       (Unspecified)
system.ruby.network.data_traffic_distribution.n9.n13            0                       (Unspecified)
system.ruby.network.data_traffic_distribution.n9.n14            0                       (Unspecified)
system.ruby.network.data_traffic_distribution.n9.n15            0                       (Unspecified)
system.ruby.network.data_traffic_distribution.n9.n2            0                       (Unspecified)
system.ruby.network.data_traffic_distribution.n9.n3            0                       (Unspecified)
system.ruby.network.data_traffic_distribution.n9.n4            0                       (Unspecified)
system.ruby.network.data_traffic_distribution.n9.n5            0                       (Unspecified)
system.ruby.network.data_traffic_distribution.n9.n6            0                       (Unspecified)
system.ruby.network.data_traffic_distribution.n9.n7            0                       (Unspecified)
system.ruby.network.data_traffic_distribution.n9.n8          337                       (Unspecified)
system.ruby.network.data_traffic_distribution.n9.n9            0                       (Unspecified)
system.ruby.network.ext_in_link_utilization       774732                       (Unspecified)
system.ruby.network.ext_out_link_utilization       774731                       (Unspecified)
system.ruby.network.flit_network_latency |  1867791500                       | 11858793000                       |   210831500                       |     5793500                       |    41940500                       (Unspecified)
system.ruby.network.flit_queueing_latency |   219954000                       |  1859121500                       |    18359500                       |     2302500                       |    10830500                       (Unspecified)
system.ruby.network.flits_injected       |      167518     21.62%     21.62% |      557393     71.95%     93.57% |       36719      4.74%     98.31% |        2289      0.30%     98.60% |       10813      1.40%    100.00% (Unspecified)
system.ruby.network.flits_injected::total       774732                       (Unspecified)
system.ruby.network.flits_received       |      167517     21.62%     21.62% |      557393     71.95%     93.57% |       36719      4.74%     98.31% |        2289      0.30%     98.60% |       10813      1.40%    100.00% (Unspecified)
system.ruby.network.flits_received::total       774731                       (Unspecified)
system.ruby.network.int_link_utilization      2300969                       (Unspecified)
system.ruby.network.packet_network_latency |  1194877000                       |  2880970500                       |   210831500                       |     5793500                       |    12016500                       (Unspecified)
system.ruby.network.packet_queueing_latency |   169398000                       |   434617500                       |    18359500                       |     2302500                       |     2292500                       (Unspecified)
system.ruby.network.packets_injected     |      133266     42.95%     42.95% |      135721     43.74%     86.69% |       36719     11.83%     98.52% |        2289      0.74%     99.26% |        2289      0.74%    100.00% (Unspecified)
system.ruby.network.packets_injected::total       310284                       (Unspecified)
system.ruby.network.packets_received     |      133265     42.95%     42.95% |      135721     43.74%     86.69% |       36719     11.83%     98.52% |        2289      0.74%     99.26% |        2289      0.74%    100.00% (Unspecified)
system.ruby.network.packets_received::total       310283                       (Unspecified)
system.ruby.network.routers00.buffer_reads       761675                       (Unspecified)
system.ruby.network.routers00.buffer_writes       761675                       (Unspecified)
system.ruby.network.routers00.crossbar_activity       761675                       (Unspecified)
system.ruby.network.routers00.sw_input_arbiter_activity       920381                       (Unspecified)
system.ruby.network.routers00.sw_output_arbiter_activity       761675                       (Unspecified)
system.ruby.network.routers01.buffer_reads       348044                       (Unspecified)
system.ruby.network.routers01.buffer_writes       348044                       (Unspecified)
system.ruby.network.routers01.crossbar_activity       348044                       (Unspecified)
system.ruby.network.routers01.sw_input_arbiter_activity       353733                       (Unspecified)
system.ruby.network.routers01.sw_output_arbiter_activity       348044                       (Unspecified)
system.ruby.network.routers02.buffer_reads       233724                       (Unspecified)
system.ruby.network.routers02.buffer_writes       233724                       (Unspecified)
system.ruby.network.routers02.crossbar_activity       233724                       (Unspecified)
system.ruby.network.routers02.sw_input_arbiter_activity       237117                       (Unspecified)
system.ruby.network.routers02.sw_output_arbiter_activity       233724                       (Unspecified)
system.ruby.network.routers03.buffer_reads       114750                       (Unspecified)
system.ruby.network.routers03.buffer_writes       114750                       (Unspecified)
system.ruby.network.routers03.crossbar_activity       114750                       (Unspecified)
system.ruby.network.routers03.sw_input_arbiter_activity       115240                       (Unspecified)
system.ruby.network.routers03.sw_output_arbiter_activity       114750                       (Unspecified)
system.ruby.network.routers04.buffer_reads       367618                       (Unspecified)
system.ruby.network.routers04.buffer_writes       367618                       (Unspecified)
system.ruby.network.routers04.crossbar_activity       367618                       (Unspecified)
system.ruby.network.routers04.sw_input_arbiter_activity       470739                       (Unspecified)
system.ruby.network.routers04.sw_output_arbiter_activity       367618                       (Unspecified)
system.ruby.network.routers05.buffer_reads       142476                       (Unspecified)
system.ruby.network.routers05.buffer_writes       142476                       (Unspecified)
system.ruby.network.routers05.crossbar_activity       142476                       (Unspecified)
system.ruby.network.routers05.sw_input_arbiter_activity       147946                       (Unspecified)
system.ruby.network.routers05.sw_output_arbiter_activity       142476                       (Unspecified)
system.ruby.network.routers06.buffer_reads       120845                       (Unspecified)
system.ruby.network.routers06.buffer_writes       120845                       (Unspecified)
system.ruby.network.routers06.crossbar_activity       120845                       (Unspecified)
system.ruby.network.routers06.sw_input_arbiter_activity       124187                       (Unspecified)
system.ruby.network.routers06.sw_output_arbiter_activity       120845                       (Unspecified)
system.ruby.network.routers07.buffer_reads        93879                       (Unspecified)
system.ruby.network.routers07.buffer_writes        93879                       (Unspecified)
system.ruby.network.routers07.crossbar_activity        93879                       (Unspecified)
system.ruby.network.routers07.sw_input_arbiter_activity        94395                       (Unspecified)
system.ruby.network.routers07.sw_output_arbiter_activity        93879                       (Unspecified)
system.ruby.network.routers08.buffer_reads       247517                       (Unspecified)
system.ruby.network.routers08.buffer_writes       247517                       (Unspecified)
system.ruby.network.routers08.crossbar_activity       247517                       (Unspecified)
system.ruby.network.routers08.sw_input_arbiter_activity       308503                       (Unspecified)
system.ruby.network.routers08.sw_output_arbiter_activity       247517                       (Unspecified)
system.ruby.network.routers09.buffer_reads       124012                       (Unspecified)
system.ruby.network.routers09.buffer_writes       124012                       (Unspecified)
system.ruby.network.routers09.crossbar_activity       124012                       (Unspecified)
system.ruby.network.routers09.sw_input_arbiter_activity       130944                       (Unspecified)
system.ruby.network.routers09.sw_output_arbiter_activity       124012                       (Unspecified)
system.ruby.network.routers10.buffer_reads        99269                       (Unspecified)
system.ruby.network.routers10.buffer_writes        99269                       (Unspecified)
system.ruby.network.routers10.crossbar_activity        99269                       (Unspecified)
system.ruby.network.routers10.sw_input_arbiter_activity       102706                       (Unspecified)
system.ruby.network.routers10.sw_output_arbiter_activity        99269                       (Unspecified)
system.ruby.network.routers11.buffer_reads        74824                       (Unspecified)
system.ruby.network.routers11.buffer_writes        74824                       (Unspecified)
system.ruby.network.routers11.crossbar_activity        74824                       (Unspecified)
system.ruby.network.routers11.sw_input_arbiter_activity        75459                       (Unspecified)
system.ruby.network.routers11.sw_output_arbiter_activity        74824                       (Unspecified)
system.ruby.network.routers12.buffer_reads       121823                       (Unspecified)
system.ruby.network.routers12.buffer_writes       121823                       (Unspecified)
system.ruby.network.routers12.crossbar_activity       121823                       (Unspecified)
system.ruby.network.routers12.sw_input_arbiter_activity       129403                       (Unspecified)
system.ruby.network.routers12.sw_output_arbiter_activity       121823                       (Unspecified)
system.ruby.network.routers13.buffer_reads        99999                       (Unspecified)
system.ruby.network.routers13.buffer_writes        99999                       (Unspecified)
system.ruby.network.routers13.crossbar_activity        99999                       (Unspecified)
system.ruby.network.routers13.sw_input_arbiter_activity       106359                       (Unspecified)
system.ruby.network.routers13.sw_output_arbiter_activity        99999                       (Unspecified)
system.ruby.network.routers14.buffer_reads        77497                       (Unspecified)
system.ruby.network.routers14.buffer_writes        77497                       (Unspecified)
system.ruby.network.routers14.crossbar_activity        77497                       (Unspecified)
system.ruby.network.routers14.sw_input_arbiter_activity        81711                       (Unspecified)
system.ruby.network.routers14.sw_output_arbiter_activity        77497                       (Unspecified)
system.ruby.network.routers15.buffer_reads        47748                       (Unspecified)
system.ruby.network.routers15.buffer_writes        47748                       (Unspecified)
system.ruby.network.routers15.crossbar_activity        47748                       (Unspecified)
system.ruby.network.routers15.sw_input_arbiter_activity        48117                       (Unspecified)
system.ruby.network.routers15.sw_output_arbiter_activity        47748                       (Unspecified)

---------- End Simulation Statistics   ----------
