
---------- Begin Simulation Statistics ----------
simSeconds                                   0.001343                       # Number of seconds simulated (Second)
simTicks                                   1342960500                       # Number of ticks simulated (Tick)
finalTick                                  1342960500                       # Number of ticks from beginning of simulation (restored from checkpoints and never reset) (Tick)
simFreq                                  1000000000000                       # The number of ticks per simulated second ((Tick/Second))
hostSeconds                                     32.36                       # Real time elapsed on the host (Second)
hostTickRate                                 41500945                       # The number of ticks simulated per host second (ticks/s) ((Tick/Second))
hostMemory                                    1477384                       # Number of bytes of host memory used (Byte)
simInsts                                      5992374                       # Number of instructions simulated (Count)
simOps                                       10525720                       # Number of ops (including micro ops) simulated (Count)
hostInstRate                                   185180                       # Simulator instruction rate (inst/s) ((Count/Second))
hostOpRate                                     325271                       # Simulator op (including micro ops) rate (op/s) ((Count/Second))
system.clk_domain.clock                          1000                       # Clock period in ticks (Tick)
system.cpu0.numCycles                          439474                       # Number of cpu cycles simulated (Cycle)
system.cpu0.cpi                              4.018967                       # CPI: cycles per instruction (core level) ((Cycle/Count))
system.cpu0.ipc                              0.248820                       # IPC: instructions per cycle (core level) ((Count/Cycle))
system.cpu0.numWorkItemsStarted                     0                       # Number of work items this cpu started (Count)
system.cpu0.numWorkItemsCompleted                   0                       # Number of work items this cpu completed (Count)
system.cpu0.instsAdded                         305190                       # Number of instructions added to the IQ (excludes non-spec) (Count)
system.cpu0.nonSpecInstsAdded                      80                       # Number of non-speculative instructions added to the IQ (Count)
system.cpu0.instsIssued                        270335                       # Number of instructions issued (Count)
system.cpu0.squashedInstsIssued                   503                       # Number of squashed instructions issued (Count)
system.cpu0.squashedInstsExamined              104554                       # Number of squashed instructions iterated over during squash; mainly for profiling (Count)
system.cpu0.squashedOperandsExamined           208520                       # Number of squashed operands that are examined and possibly removed from graph (Count)
system.cpu0.squashedNonSpecRemoved                 20                       # Number of squashed non-spec instructions that were removed (Count)
system.cpu0.numIssuedDist::samples             317837                       # Number of insts issued each cycle (Count)
system.cpu0.numIssuedDist::mean              0.850546                       # Number of insts issued each cycle (Count)
system.cpu0.numIssuedDist::stdev             1.833919                       # Number of insts issued each cycle (Count)
system.cpu0.numIssuedDist::underflows               0      0.00%      0.00% # Number of insts issued each cycle (Count)
system.cpu0.numIssuedDist::0                   243296     76.55%     76.55% # Number of insts issued each cycle (Count)
system.cpu0.numIssuedDist::1                    14513      4.57%     81.11% # Number of insts issued each cycle (Count)
system.cpu0.numIssuedDist::2                    12205      3.84%     84.95% # Number of insts issued each cycle (Count)
system.cpu0.numIssuedDist::3                    12534      3.94%     88.90% # Number of insts issued each cycle (Count)
system.cpu0.numIssuedDist::4                     9881      3.11%     92.01% # Number of insts issued each cycle (Count)
system.cpu0.numIssuedDist::5                     9713      3.06%     95.06% # Number of insts issued each cycle (Count)
system.cpu0.numIssuedDist::6                     7471      2.35%     97.41% # Number of insts issued each cycle (Count)
system.cpu0.numIssuedDist::7                     4897      1.54%     98.95% # Number of insts issued each cycle (Count)
system.cpu0.numIssuedDist::8                     3327      1.05%    100.00% # Number of insts issued each cycle (Count)
system.cpu0.numIssuedDist::overflows                0      0.00%    100.00% # Number of insts issued each cycle (Count)
system.cpu0.numIssuedDist::min_value                0                       # Number of insts issued each cycle (Count)
system.cpu0.numIssuedDist::max_value                8                       # Number of insts issued each cycle (Count)
system.cpu0.numIssuedDist::total               317837                       # Number of insts issued each cycle (Count)
system.cpu0.statFuBusy::No_OpClass                  0      0.00%      0.00% # attempts to use FU when none available (Count)
system.cpu0.statFuBusy::IntAlu                   3060     66.62%     66.62% # attempts to use FU when none available (Count)
system.cpu0.statFuBusy::IntMult                     0      0.00%     66.62% # attempts to use FU when none available (Count)
system.cpu0.statFuBusy::IntDiv                      0      0.00%     66.62% # attempts to use FU when none available (Count)
system.cpu0.statFuBusy::FloatAdd                    0      0.00%     66.62% # attempts to use FU when none available (Count)
system.cpu0.statFuBusy::FloatCmp                    0      0.00%     66.62% # attempts to use FU when none available (Count)
system.cpu0.statFuBusy::FloatCvt                    0      0.00%     66.62% # attempts to use FU when none available (Count)
system.cpu0.statFuBusy::FloatMult                   0      0.00%     66.62% # attempts to use FU when none available (Count)
system.cpu0.statFuBusy::FloatMultAcc                0      0.00%     66.62% # attempts to use FU when none available (Count)
system.cpu0.statFuBusy::FloatDiv                    0      0.00%     66.62% # attempts to use FU when none available (Count)
system.cpu0.statFuBusy::FloatMisc                   0      0.00%     66.62% # attempts to use FU when none available (Count)
system.cpu0.statFuBusy::FloatSqrt                   0      0.00%     66.62% # attempts to use FU when none available (Count)
system.cpu0.statFuBusy::SimdAdd                     0      0.00%     66.62% # attempts to use FU when none available (Count)
system.cpu0.statFuBusy::SimdAddAcc                  0      0.00%     66.62% # attempts to use FU when none available (Count)
system.cpu0.statFuBusy::SimdAlu                    17      0.37%     66.99% # attempts to use FU when none available (Count)
system.cpu0.statFuBusy::SimdCmp                     0      0.00%     66.99% # attempts to use FU when none available (Count)
system.cpu0.statFuBusy::SimdCvt                    36      0.78%     67.78% # attempts to use FU when none available (Count)
system.cpu0.statFuBusy::SimdMisc                    0      0.00%     67.78% # attempts to use FU when none available (Count)
system.cpu0.statFuBusy::SimdMult                    0      0.00%     67.78% # attempts to use FU when none available (Count)
system.cpu0.statFuBusy::SimdMultAcc                 0      0.00%     67.78% # attempts to use FU when none available (Count)
system.cpu0.statFuBusy::SimdMatMultAcc              0      0.00%     67.78% # attempts to use FU when none available (Count)
system.cpu0.statFuBusy::SimdShift                  47      1.02%     68.80% # attempts to use FU when none available (Count)
system.cpu0.statFuBusy::SimdShiftAcc                0      0.00%     68.80% # attempts to use FU when none available (Count)
system.cpu0.statFuBusy::SimdDiv                     0      0.00%     68.80% # attempts to use FU when none available (Count)
system.cpu0.statFuBusy::SimdSqrt                    0      0.00%     68.80% # attempts to use FU when none available (Count)
system.cpu0.statFuBusy::SimdFloatAdd                0      0.00%     68.80% # attempts to use FU when none available (Count)
system.cpu0.statFuBusy::SimdFloatAlu                0      0.00%     68.80% # attempts to use FU when none available (Count)
system.cpu0.statFuBusy::SimdFloatCmp                0      0.00%     68.80% # attempts to use FU when none available (Count)
system.cpu0.statFuBusy::SimdFloatCvt                0      0.00%     68.80% # attempts to use FU when none available (Count)
system.cpu0.statFuBusy::SimdFloatDiv                0      0.00%     68.80% # attempts to use FU when none available (Count)
system.cpu0.statFuBusy::SimdFloatMisc               0      0.00%     68.80% # attempts to use FU when none available (Count)
system.cpu0.statFuBusy::SimdFloatMult               0      0.00%     68.80% # attempts to use FU when none available (Count)
system.cpu0.statFuBusy::SimdFloatMultAcc            0      0.00%     68.80% # attempts to use FU when none available (Count)
system.cpu0.statFuBusy::SimdFloatMatMultAcc            0      0.00%     68.80% # attempts to use FU when none available (Count)
system.cpu0.statFuBusy::SimdFloatSqrt               0      0.00%     68.80% # attempts to use FU when none available (Count)
system.cpu0.statFuBusy::SimdReduceAdd               0      0.00%     68.80% # attempts to use FU when none available (Count)
system.cpu0.statFuBusy::SimdReduceAlu               0      0.00%     68.80% # attempts to use FU when none available (Count)
system.cpu0.statFuBusy::SimdReduceCmp               0      0.00%     68.80% # attempts to use FU when none available (Count)
system.cpu0.statFuBusy::SimdFloatReduceAdd            0      0.00%     68.80% # attempts to use FU when none available (Count)
system.cpu0.statFuBusy::SimdFloatReduceCmp            0      0.00%     68.80% # attempts to use FU when none available (Count)
system.cpu0.statFuBusy::SimdAes                     0      0.00%     68.80% # attempts to use FU when none available (Count)
system.cpu0.statFuBusy::SimdAesMix                  0      0.00%     68.80% # attempts to use FU when none available (Count)
system.cpu0.statFuBusy::SimdSha1Hash                0      0.00%     68.80% # attempts to use FU when none available (Count)
system.cpu0.statFuBusy::SimdSha1Hash2               0      0.00%     68.80% # attempts to use FU when none available (Count)
system.cpu0.statFuBusy::SimdSha256Hash              0      0.00%     68.80% # attempts to use FU when none available (Count)
system.cpu0.statFuBusy::SimdSha256Hash2             0      0.00%     68.80% # attempts to use FU when none available (Count)
system.cpu0.statFuBusy::SimdShaSigma2               0      0.00%     68.80% # attempts to use FU when none available (Count)
system.cpu0.statFuBusy::SimdShaSigma3               0      0.00%     68.80% # attempts to use FU when none available (Count)
system.cpu0.statFuBusy::SimdPredAlu                 0      0.00%     68.80% # attempts to use FU when none available (Count)
system.cpu0.statFuBusy::Matrix                      0      0.00%     68.80% # attempts to use FU when none available (Count)
system.cpu0.statFuBusy::MatrixMov                   0      0.00%     68.80% # attempts to use FU when none available (Count)
system.cpu0.statFuBusy::MatrixOP                    0      0.00%     68.80% # attempts to use FU when none available (Count)
system.cpu0.statFuBusy::MemRead                   788     17.16%     85.96% # attempts to use FU when none available (Count)
system.cpu0.statFuBusy::MemWrite                  561     12.21%     98.17% # attempts to use FU when none available (Count)
system.cpu0.statFuBusy::FloatMemRead               33      0.72%     98.89% # attempts to use FU when none available (Count)
system.cpu0.statFuBusy::FloatMemWrite              51      1.11%    100.00% # attempts to use FU when none available (Count)
system.cpu0.statFuBusy::IprAccess                   0      0.00%    100.00% # attempts to use FU when none available (Count)
system.cpu0.statFuBusy::InstPrefetch                0      0.00%    100.00% # attempts to use FU when none available (Count)
system.cpu0.statFuBusy::VectorUnitStrideLoad            0      0.00%    100.00% # attempts to use FU when none available (Count)
system.cpu0.statFuBusy::VectorUnitStrideStore            0      0.00%    100.00% # attempts to use FU when none available (Count)
system.cpu0.statFuBusy::VectorUnitStrideMaskLoad            0      0.00%    100.00% # attempts to use FU when none available (Count)
system.cpu0.statFuBusy::VectorUnitStrideMaskStore            0      0.00%    100.00% # attempts to use FU when none available (Count)
system.cpu0.statFuBusy::VectorStridedLoad            0      0.00%    100.00% # attempts to use FU when none available (Count)
system.cpu0.statFuBusy::VectorStridedStore            0      0.00%    100.00% # attempts to use FU when none available (Count)
system.cpu0.statFuBusy::VectorIndexedLoad            0      0.00%    100.00% # attempts to use FU when none available (Count)
system.cpu0.statFuBusy::VectorIndexedStore            0      0.00%    100.00% # attempts to use FU when none available (Count)
system.cpu0.statFuBusy::VectorUnitStrideFaultOnlyFirstLoad            0      0.00%    100.00% # attempts to use FU when none available (Count)
system.cpu0.statFuBusy::VectorWholeRegisterLoad            0      0.00%    100.00% # attempts to use FU when none available (Count)
system.cpu0.statFuBusy::VectorWholeRegisterStore            0      0.00%    100.00% # attempts to use FU when none available (Count)
system.cpu0.statFuBusy::VectorIntegerArith            0      0.00%    100.00% # attempts to use FU when none available (Count)
system.cpu0.statFuBusy::VectorFloatArith            0      0.00%    100.00% # attempts to use FU when none available (Count)
system.cpu0.statFuBusy::VectorFloatConvert            0      0.00%    100.00% # attempts to use FU when none available (Count)
system.cpu0.statFuBusy::VectorIntegerReduce            0      0.00%    100.00% # attempts to use FU when none available (Count)
system.cpu0.statFuBusy::VectorFloatReduce            0      0.00%    100.00% # attempts to use FU when none available (Count)
system.cpu0.statFuBusy::VectorMisc                  0      0.00%    100.00% # attempts to use FU when none available (Count)
system.cpu0.statFuBusy::VectorIntegerExtension            0      0.00%    100.00% # attempts to use FU when none available (Count)
system.cpu0.statFuBusy::VectorConfig                0      0.00%    100.00% # attempts to use FU when none available (Count)
system.cpu0.statIssuedInstType_0::No_OpClass         2794      1.03%      1.03% # Number of instructions issued per FU type, per thread (Count)
system.cpu0.statIssuedInstType_0::IntAlu       200037     74.00%     75.03% # Number of instructions issued per FU type, per thread (Count)
system.cpu0.statIssuedInstType_0::IntMult           20      0.01%     75.04% # Number of instructions issued per FU type, per thread (Count)
system.cpu0.statIssuedInstType_0::IntDiv         1774      0.66%     75.69% # Number of instructions issued per FU type, per thread (Count)
system.cpu0.statIssuedInstType_0::FloatAdd          726      0.27%     75.96% # Number of instructions issued per FU type, per thread (Count)
system.cpu0.statIssuedInstType_0::FloatCmp            0      0.00%     75.96% # Number of instructions issued per FU type, per thread (Count)
system.cpu0.statIssuedInstType_0::FloatCvt           32      0.01%     75.97% # Number of instructions issued per FU type, per thread (Count)
system.cpu0.statIssuedInstType_0::FloatMult            0      0.00%     75.97% # Number of instructions issued per FU type, per thread (Count)
system.cpu0.statIssuedInstType_0::FloatMultAcc            0      0.00%     75.97% # Number of instructions issued per FU type, per thread (Count)
system.cpu0.statIssuedInstType_0::FloatDiv            0      0.00%     75.97% # Number of instructions issued per FU type, per thread (Count)
system.cpu0.statIssuedInstType_0::FloatMisc            0      0.00%     75.97% # Number of instructions issued per FU type, per thread (Count)
system.cpu0.statIssuedInstType_0::FloatSqrt            0      0.00%     75.97% # Number of instructions issued per FU type, per thread (Count)
system.cpu0.statIssuedInstType_0::SimdAdd          708      0.26%     76.24% # Number of instructions issued per FU type, per thread (Count)
system.cpu0.statIssuedInstType_0::SimdAddAcc            0      0.00%     76.24% # Number of instructions issued per FU type, per thread (Count)
system.cpu0.statIssuedInstType_0::SimdAlu         1949      0.72%     76.96% # Number of instructions issued per FU type, per thread (Count)
system.cpu0.statIssuedInstType_0::SimdCmp            0      0.00%     76.96% # Number of instructions issued per FU type, per thread (Count)
system.cpu0.statIssuedInstType_0::SimdCvt         1775      0.66%     77.61% # Number of instructions issued per FU type, per thread (Count)
system.cpu0.statIssuedInstType_0::SimdMisc         1315      0.49%     78.10% # Number of instructions issued per FU type, per thread (Count)
system.cpu0.statIssuedInstType_0::SimdMult            0      0.00%     78.10% # Number of instructions issued per FU type, per thread (Count)
system.cpu0.statIssuedInstType_0::SimdMultAcc            0      0.00%     78.10% # Number of instructions issued per FU type, per thread (Count)
system.cpu0.statIssuedInstType_0::SimdMatMultAcc            0      0.00%     78.10% # Number of instructions issued per FU type, per thread (Count)
system.cpu0.statIssuedInstType_0::SimdShift          818      0.30%     78.40% # Number of instructions issued per FU type, per thread (Count)
system.cpu0.statIssuedInstType_0::SimdShiftAcc            0      0.00%     78.40% # Number of instructions issued per FU type, per thread (Count)
system.cpu0.statIssuedInstType_0::SimdDiv            0      0.00%     78.40% # Number of instructions issued per FU type, per thread (Count)
system.cpu0.statIssuedInstType_0::SimdSqrt            0      0.00%     78.40% # Number of instructions issued per FU type, per thread (Count)
system.cpu0.statIssuedInstType_0::SimdFloatAdd            0      0.00%     78.40% # Number of instructions issued per FU type, per thread (Count)
system.cpu0.statIssuedInstType_0::SimdFloatAlu            0      0.00%     78.40% # Number of instructions issued per FU type, per thread (Count)
system.cpu0.statIssuedInstType_0::SimdFloatCmp            0      0.00%     78.40% # Number of instructions issued per FU type, per thread (Count)
system.cpu0.statIssuedInstType_0::SimdFloatCvt            0      0.00%     78.40% # Number of instructions issued per FU type, per thread (Count)
system.cpu0.statIssuedInstType_0::SimdFloatDiv            0      0.00%     78.40% # Number of instructions issued per FU type, per thread (Count)
system.cpu0.statIssuedInstType_0::SimdFloatMisc            0      0.00%     78.40% # Number of instructions issued per FU type, per thread (Count)
system.cpu0.statIssuedInstType_0::SimdFloatMult            0      0.00%     78.40% # Number of instructions issued per FU type, per thread (Count)
system.cpu0.statIssuedInstType_0::SimdFloatMultAcc            0      0.00%     78.40% # Number of instructions issued per FU type, per thread (Count)
system.cpu0.statIssuedInstType_0::SimdFloatMatMultAcc            0      0.00%     78.40% # Number of instructions issued per FU type, per thread (Count)
system.cpu0.statIssuedInstType_0::SimdFloatSqrt            0      0.00%     78.40% # Number of instructions issued per FU type, per thread (Count)
system.cpu0.statIssuedInstType_0::SimdReduceAdd            0      0.00%     78.40% # Number of instructions issued per FU type, per thread (Count)
system.cpu0.statIssuedInstType_0::SimdReduceAlu            0      0.00%     78.40% # Number of instructions issued per FU type, per thread (Count)
system.cpu0.statIssuedInstType_0::SimdReduceCmp            0      0.00%     78.40% # Number of instructions issued per FU type, per thread (Count)
system.cpu0.statIssuedInstType_0::SimdFloatReduceAdd            0      0.00%     78.40% # Number of instructions issued per FU type, per thread (Count)
system.cpu0.statIssuedInstType_0::SimdFloatReduceCmp            0      0.00%     78.40% # Number of instructions issued per FU type, per thread (Count)
system.cpu0.statIssuedInstType_0::SimdAes            0      0.00%     78.40% # Number of instructions issued per FU type, per thread (Count)
system.cpu0.statIssuedInstType_0::SimdAesMix            0      0.00%     78.40% # Number of instructions issued per FU type, per thread (Count)
system.cpu0.statIssuedInstType_0::SimdSha1Hash            0      0.00%     78.40% # Number of instructions issued per FU type, per thread (Count)
system.cpu0.statIssuedInstType_0::SimdSha1Hash2            0      0.00%     78.40% # Number of instructions issued per FU type, per thread (Count)
system.cpu0.statIssuedInstType_0::SimdSha256Hash            0      0.00%     78.40% # Number of instructions issued per FU type, per thread (Count)
system.cpu0.statIssuedInstType_0::SimdSha256Hash2            0      0.00%     78.40% # Number of instructions issued per FU type, per thread (Count)
system.cpu0.statIssuedInstType_0::SimdShaSigma2            0      0.00%     78.40% # Number of instructions issued per FU type, per thread (Count)
system.cpu0.statIssuedInstType_0::SimdShaSigma3            0      0.00%     78.40% # Number of instructions issued per FU type, per thread (Count)
system.cpu0.statIssuedInstType_0::SimdPredAlu            0      0.00%     78.40% # Number of instructions issued per FU type, per thread (Count)
system.cpu0.statIssuedInstType_0::Matrix            0      0.00%     78.40% # Number of instructions issued per FU type, per thread (Count)
system.cpu0.statIssuedInstType_0::MatrixMov            0      0.00%     78.40% # Number of instructions issued per FU type, per thread (Count)
system.cpu0.statIssuedInstType_0::MatrixOP            0      0.00%     78.40% # Number of instructions issued per FU type, per thread (Count)
system.cpu0.statIssuedInstType_0::MemRead        38044     14.07%     92.47% # Number of instructions issued per FU type, per thread (Count)
system.cpu0.statIssuedInstType_0::MemWrite        16321      6.04%     98.51% # Number of instructions issued per FU type, per thread (Count)
system.cpu0.statIssuedInstType_0::FloatMemRead         2798      1.04%     99.55% # Number of instructions issued per FU type, per thread (Count)
system.cpu0.statIssuedInstType_0::FloatMemWrite         1224      0.45%    100.00% # Number of instructions issued per FU type, per thread (Count)
system.cpu0.statIssuedInstType_0::IprAccess            0      0.00%    100.00% # Number of instructions issued per FU type, per thread (Count)
system.cpu0.statIssuedInstType_0::InstPrefetch            0      0.00%    100.00% # Number of instructions issued per FU type, per thread (Count)
system.cpu0.statIssuedInstType_0::VectorUnitStrideLoad            0      0.00%    100.00% # Number of instructions issued per FU type, per thread (Count)
system.cpu0.statIssuedInstType_0::VectorUnitStrideStore            0      0.00%    100.00% # Number of instructions issued per FU type, per thread (Count)
system.cpu0.statIssuedInstType_0::VectorUnitStrideMaskLoad            0      0.00%    100.00% # Number of instructions issued per FU type, per thread (Count)
system.cpu0.statIssuedInstType_0::VectorUnitStrideMaskStore            0      0.00%    100.00% # Number of instructions issued per FU type, per thread (Count)
system.cpu0.statIssuedInstType_0::VectorStridedLoad            0      0.00%    100.00% # Number of instructions issued per FU type, per thread (Count)
system.cpu0.statIssuedInstType_0::VectorStridedStore            0      0.00%    100.00% # Number of instructions issued per FU type, per thread (Count)
system.cpu0.statIssuedInstType_0::VectorIndexedLoad            0      0.00%    100.00% # Number of instructions issued per FU type, per thread (Count)
system.cpu0.statIssuedInstType_0::VectorIndexedStore            0      0.00%    100.00% # Number of instructions issued per FU type, per thread (Count)
system.cpu0.statIssuedInstType_0::VectorUnitStrideFaultOnlyFirstLoad            0      0.00%    100.00% # Number of instructions issued per FU type, per thread (Count)
system.cpu0.statIssuedInstType_0::VectorWholeRegisterLoad            0      0.00%    100.00% # Number of instructions issued per FU type, per thread (Count)
system.cpu0.statIssuedInstType_0::VectorWholeRegisterStore            0      0.00%    100.00% # Number of instructions issued per FU type, per thread (Count)
system.cpu0.statIssuedInstType_0::VectorIntegerArith            0      0.00%    100.00% # Number of instructions issued per FU type, per thread (Count)
system.cpu0.statIssuedInstType_0::VectorFloatArith            0      0.00%    100.00% # Number of instructions issued per FU type, per thread (Count)
system.cpu0.statIssuedInstType_0::VectorFloatConvert            0      0.00%    100.00% # Number of instructions issued per FU type, per thread (Count)
system.cpu0.statIssuedInstType_0::VectorIntegerReduce            0      0.00%    100.00% # Number of instructions issued per FU type, per thread (Count)
system.cpu0.statIssuedInstType_0::VectorFloatReduce            0      0.00%    100.00% # Number of instructions issued per FU type, per thread (Count)
system.cpu0.statIssuedInstType_0::VectorMisc            0      0.00%    100.00% # Number of instructions issued per FU type, per thread (Count)
system.cpu0.statIssuedInstType_0::VectorIntegerExtension            0      0.00%    100.00% # Number of instructions issued per FU type, per thread (Count)
system.cpu0.statIssuedInstType_0::VectorConfig            0      0.00%    100.00% # Number of instructions issued per FU type, per thread (Count)
system.cpu0.statIssuedInstType_0::total        270335                       # Number of instructions issued per FU type, per thread (Count)
system.cpu0.issueRate                        0.615133                       # Inst issue rate ((Count/Cycle))
system.cpu0.fuBusy                               4593                       # FU busy when requested (Count)
system.cpu0.fuBusyRate                       0.016990                       # FU busy rate (busy events/executed inst) ((Count/Count))
system.cpu0.intInstQueueReads                  839904                       # Number of integer instruction queue reads (Count)
system.cpu0.intInstQueueWrites                 386967                       # Number of integer instruction queue writes (Count)
system.cpu0.intInstQueueWakeupAccesses         250703                       # Number of integer instruction queue wakeup accesses (Count)
system.cpu0.fpInstQueueReads                    23699                       # Number of floating instruction queue reads (Count)
system.cpu0.fpInstQueueWrites                   22937                       # Number of floating instruction queue writes (Count)
system.cpu0.fpInstQueueWakeupAccesses           10845                       # Number of floating instruction queue wakeup accesses (Count)
system.cpu0.vecInstQueueReads                       0                       # Number of vector instruction queue reads (Count)
system.cpu0.vecInstQueueWrites                      0                       # Number of vector instruction queue writes (Count)
system.cpu0.vecInstQueueWakeupAccesses              0                       # Number of vector instruction queue wakeup accesses (Count)
system.cpu0.intAluAccesses                     260227                       # Number of integer alu accesses (Count)
system.cpu0.fpAluAccesses                       11907                       # Number of floating point alu accesses (Count)
system.cpu0.vecAluAccesses                          0                       # Number of vector alu accesses (Count)
system.cpu0.numSquashedInsts                     4070                       # Number of squashed instructions skipped in execute (Count)
system.cpu0.numSwp                                  0                       # Number of swp insts executed (Count)
system.cpu0.timesIdled                            895                       # Number of times that the entire CPU went into an idle state and unscheduled itself (Count)
system.cpu0.idleCycles                         121637                       # Total number of cycles that the CPU has spent unscheduled due to idling (Cycle)
system.cpu0.MemDepUnit__0.insertedLoads         42330                       # Number of loads inserted to the mem dependence unit. (Count)
system.cpu0.MemDepUnit__0.insertedStores        19284                       # Number of stores inserted to the mem dependence unit. (Count)
system.cpu0.MemDepUnit__0.conflictingLoads         1053                       # Number of conflicting loads. (Count)
system.cpu0.MemDepUnit__0.conflictingStores          272                       # Number of conflicting stores. (Count)
system.cpu0.MemDepUnit__1.insertedLoads             0                       # Number of loads inserted to the mem dependence unit. (Count)
system.cpu0.MemDepUnit__1.insertedStores            0                       # Number of stores inserted to the mem dependence unit. (Count)
system.cpu0.MemDepUnit__1.conflictingLoads            0                       # Number of conflicting loads. (Count)
system.cpu0.MemDepUnit__1.conflictingStores            0                       # Number of conflicting stores. (Count)
system.cpu0.MemDepUnit__2.insertedLoads             0                       # Number of loads inserted to the mem dependence unit. (Count)
system.cpu0.MemDepUnit__2.insertedStores            0                       # Number of stores inserted to the mem dependence unit. (Count)
system.cpu0.MemDepUnit__2.conflictingLoads            0                       # Number of conflicting loads. (Count)
system.cpu0.MemDepUnit__2.conflictingStores            0                       # Number of conflicting stores. (Count)
system.cpu0.MemDepUnit__3.insertedLoads             0                       # Number of loads inserted to the mem dependence unit. (Count)
system.cpu0.MemDepUnit__3.insertedStores            0                       # Number of stores inserted to the mem dependence unit. (Count)
system.cpu0.MemDepUnit__3.conflictingLoads            0                       # Number of conflicting loads. (Count)
system.cpu0.MemDepUnit__3.conflictingStores            0                       # Number of conflicting stores. (Count)
system.cpu0.branchPred.lookups_0::NoBranch          454      1.26%      1.26% # Number of BP lookups (Count)
system.cpu0.branchPred.lookups_0::Return         1504      4.17%      5.42% # Number of BP lookups (Count)
system.cpu0.branchPred.lookups_0::CallDirect         1663      4.61%     10.03% # Number of BP lookups (Count)
system.cpu0.branchPred.lookups_0::CallIndirect          306      0.85%     10.88% # Number of BP lookups (Count)
system.cpu0.branchPred.lookups_0::DirectCond        30046     83.23%     94.10% # Number of BP lookups (Count)
system.cpu0.branchPred.lookups_0::DirectUncond         1596      4.42%     98.52% # Number of BP lookups (Count)
system.cpu0.branchPred.lookups_0::IndirectCond            0      0.00%     98.52% # Number of BP lookups (Count)
system.cpu0.branchPred.lookups_0::IndirectUncond          533      1.48%    100.00% # Number of BP lookups (Count)
system.cpu0.branchPred.lookups_0::total         36102                       # Number of BP lookups (Count)
system.cpu0.branchPred.squashes_0::NoBranch          402      2.59%      2.59% # Number of branches that got squashed (completely removed) as an earlier branch was mispredicted. (Count)
system.cpu0.branchPred.squashes_0::Return          651      4.20%      6.79% # Number of branches that got squashed (completely removed) as an earlier branch was mispredicted. (Count)
system.cpu0.branchPred.squashes_0::CallDirect          894      5.76%     12.55% # Number of branches that got squashed (completely removed) as an earlier branch was mispredicted. (Count)
system.cpu0.branchPred.squashes_0::CallIndirect          217      1.40%     13.95% # Number of branches that got squashed (completely removed) as an earlier branch was mispredicted. (Count)
system.cpu0.branchPred.squashes_0::DirectCond        12284     79.17%     93.12% # Number of branches that got squashed (completely removed) as an earlier branch was mispredicted. (Count)
system.cpu0.branchPred.squashes_0::DirectUncond          787      5.07%     98.20% # Number of branches that got squashed (completely removed) as an earlier branch was mispredicted. (Count)
system.cpu0.branchPred.squashes_0::IndirectCond            0      0.00%     98.20% # Number of branches that got squashed (completely removed) as an earlier branch was mispredicted. (Count)
system.cpu0.branchPred.squashes_0::IndirectUncond          280      1.80%    100.00% # Number of branches that got squashed (completely removed) as an earlier branch was mispredicted. (Count)
system.cpu0.branchPred.squashes_0::total        15515                       # Number of branches that got squashed (completely removed) as an earlier branch was mispredicted. (Count)
system.cpu0.branchPred.corrected_0::NoBranch          108      4.03%      4.03% # Number of branches that got corrected but not yet commited. Branches get corrected by decode or after execute. Also a branch misprediction can be detected out-of-order. Therefore, a corrected branch might not end up beeing committed in case an even earlier branch was mispredicted (Count)
system.cpu0.branchPred.corrected_0::Return            2      0.07%      4.10% # Number of branches that got corrected but not yet commited. Branches get corrected by decode or after execute. Also a branch misprediction can be detected out-of-order. Therefore, a corrected branch might not end up beeing committed in case an even earlier branch was mispredicted (Count)
system.cpu0.branchPred.corrected_0::CallDirect          263      9.81%     13.91% # Number of branches that got corrected but not yet commited. Branches get corrected by decode or after execute. Also a branch misprediction can be detected out-of-order. Therefore, a corrected branch might not end up beeing committed in case an even earlier branch was mispredicted (Count)
system.cpu0.branchPred.corrected_0::CallIndirect           99      3.69%     17.60% # Number of branches that got corrected but not yet commited. Branches get corrected by decode or after execute. Also a branch misprediction can be detected out-of-order. Therefore, a corrected branch might not end up beeing committed in case an even earlier branch was mispredicted (Count)
system.cpu0.branchPred.corrected_0::DirectCond         1766     65.85%     83.45% # Number of branches that got corrected but not yet commited. Branches get corrected by decode or after execute. Also a branch misprediction can be detected out-of-order. Therefore, a corrected branch might not end up beeing committed in case an even earlier branch was mispredicted (Count)
system.cpu0.branchPred.corrected_0::DirectUncond          261      9.73%     93.18% # Number of branches that got corrected but not yet commited. Branches get corrected by decode or after execute. Also a branch misprediction can be detected out-of-order. Therefore, a corrected branch might not end up beeing committed in case an even earlier branch was mispredicted (Count)
system.cpu0.branchPred.corrected_0::IndirectCond            0      0.00%     93.18% # Number of branches that got corrected but not yet commited. Branches get corrected by decode or after execute. Also a branch misprediction can be detected out-of-order. Therefore, a corrected branch might not end up beeing committed in case an even earlier branch was mispredicted (Count)
system.cpu0.branchPred.corrected_0::IndirectUncond          183      6.82%    100.00% # Number of branches that got corrected but not yet commited. Branches get corrected by decode or after execute. Also a branch misprediction can be detected out-of-order. Therefore, a corrected branch might not end up beeing committed in case an even earlier branch was mispredicted (Count)
system.cpu0.branchPred.corrected_0::total         2682                       # Number of branches that got corrected but not yet commited. Branches get corrected by decode or after execute. Also a branch misprediction can be detected out-of-order. Therefore, a corrected branch might not end up beeing committed in case an even earlier branch was mispredicted (Count)
system.cpu0.branchPred.earlyResteers_0::NoBranch            0                       # Number of branches that got redirected after decode. (Count)
system.cpu0.branchPred.earlyResteers_0::Return            0                       # Number of branches that got redirected after decode. (Count)
system.cpu0.branchPred.earlyResteers_0::CallDirect            0                       # Number of branches that got redirected after decode. (Count)
system.cpu0.branchPred.earlyResteers_0::CallIndirect            0                       # Number of branches that got redirected after decode. (Count)
system.cpu0.branchPred.earlyResteers_0::DirectCond            0                       # Number of branches that got redirected after decode. (Count)
system.cpu0.branchPred.earlyResteers_0::DirectUncond            0                       # Number of branches that got redirected after decode. (Count)
system.cpu0.branchPred.earlyResteers_0::IndirectCond            0                       # Number of branches that got redirected after decode. (Count)
system.cpu0.branchPred.earlyResteers_0::IndirectUncond            0                       # Number of branches that got redirected after decode. (Count)
system.cpu0.branchPred.earlyResteers_0::total            0                       # Number of branches that got redirected after decode. (Count)
system.cpu0.branchPred.committed_0::NoBranch           52      0.25%      0.25% # Number of branches finally committed  (Count)
system.cpu0.branchPred.committed_0::Return          853      4.14%      4.40% # Number of branches finally committed  (Count)
system.cpu0.branchPred.committed_0::CallDirect          769      3.74%      8.13% # Number of branches finally committed  (Count)
system.cpu0.branchPred.committed_0::CallIndirect           89      0.43%      8.56% # Number of branches finally committed  (Count)
system.cpu0.branchPred.committed_0::DirectCond        17762     86.28%     94.84% # Number of branches finally committed  (Count)
system.cpu0.branchPred.committed_0::DirectUncond          809      3.93%     98.77% # Number of branches finally committed  (Count)
system.cpu0.branchPred.committed_0::IndirectCond            0      0.00%     98.77% # Number of branches finally committed  (Count)
system.cpu0.branchPred.committed_0::IndirectUncond          253      1.23%    100.00% # Number of branches finally committed  (Count)
system.cpu0.branchPred.committed_0::total        20587                       # Number of branches finally committed  (Count)
system.cpu0.branchPred.mispredicted_0::NoBranch           52      2.38%      2.38% # Number of committed branches that were mispredicted. (Count)
system.cpu0.branchPred.mispredicted_0::Return            0      0.00%      2.38% # Number of committed branches that were mispredicted. (Count)
system.cpu0.branchPred.mispredicted_0::CallDirect          137      6.26%      8.63% # Number of committed branches that were mispredicted. (Count)
system.cpu0.branchPred.mispredicted_0::CallIndirect           88      4.02%     12.65% # Number of committed branches that were mispredicted. (Count)
system.cpu0.branchPred.mispredicted_0::DirectCond         1595     72.86%     85.52% # Number of committed branches that were mispredicted. (Count)
system.cpu0.branchPred.mispredicted_0::DirectUncond          143      6.53%     92.05% # Number of committed branches that were mispredicted. (Count)
system.cpu0.branchPred.mispredicted_0::IndirectCond            0      0.00%     92.05% # Number of committed branches that were mispredicted. (Count)
system.cpu0.branchPred.mispredicted_0::IndirectUncond          174      7.95%    100.00% # Number of committed branches that were mispredicted. (Count)
system.cpu0.branchPred.mispredicted_0::total         2189                       # Number of committed branches that were mispredicted. (Count)
system.cpu0.branchPred.targetProvider_0::NoTarget        21297     58.99%     58.99% # The component providing the target for taken branches (Count)
system.cpu0.branchPred.targetProvider_0::BTB        13156     36.44%     95.43% # The component providing the target for taken branches (Count)
system.cpu0.branchPred.targetProvider_0::RAS         1504      4.17%     99.60% # The component providing the target for taken branches (Count)
system.cpu0.branchPred.targetProvider_0::Indirect          145      0.40%    100.00% # The component providing the target for taken branches (Count)
system.cpu0.branchPred.targetProvider_0::total        36102                       # The component providing the target for taken branches (Count)
system.cpu0.branchPred.targetWrong_0::NoBranch         2004     82.78%     82.78% # Number of branches where the target was incorrect or not available at prediction time. (Count)
system.cpu0.branchPred.targetWrong_0::Return          393     16.23%     99.01% # Number of branches where the target was incorrect or not available at prediction time. (Count)
system.cpu0.branchPred.targetWrong_0::CallDirect            2      0.08%     99.09% # Number of branches where the target was incorrect or not available at prediction time. (Count)
system.cpu0.branchPred.targetWrong_0::CallIndirect           22      0.91%    100.00% # Number of branches where the target was incorrect or not available at prediction time. (Count)
system.cpu0.branchPred.targetWrong_0::DirectCond            0      0.00%    100.00% # Number of branches where the target was incorrect or not available at prediction time. (Count)
system.cpu0.branchPred.targetWrong_0::DirectUncond            0      0.00%    100.00% # Number of branches where the target was incorrect or not available at prediction time. (Count)
system.cpu0.branchPred.targetWrong_0::IndirectCond            0      0.00%    100.00% # Number of branches where the target was incorrect or not available at prediction time. (Count)
system.cpu0.branchPred.targetWrong_0::IndirectUncond            0      0.00%    100.00% # Number of branches where the target was incorrect or not available at prediction time. (Count)
system.cpu0.branchPred.targetWrong_0::total         2421                       # Number of branches where the target was incorrect or not available at prediction time. (Count)
system.cpu0.branchPred.condPredicted            30500                       # Number of conditional branches predicted (Count)
system.cpu0.branchPred.condPredictedTaken        11676                       # Number of conditional branches predicted as taken (Count)
system.cpu0.branchPred.condIncorrect             2682                       # Number of conditional branches incorrect (Count)
system.cpu0.branchPred.predTakenBTBMiss           679                       # Number of branches predicted taken but missed in BTB (Count)
system.cpu0.branchPred.NotTakenMispredicted         2258                       # Number branches predicted 'not taken' but turned out to be taken (Count)
system.cpu0.branchPred.TakenMispredicted          424                       # Number branches predicted taken but are actually not taken (Count)
system.cpu0.branchPred.BTBLookups               36102                       # Number of BTB lookups (Count)
system.cpu0.branchPred.BTBUpdates                1866                       # Number of BTB updates (Count)
system.cpu0.branchPred.BTBHits                  18054                       # Number of BTB hits (Count)
system.cpu0.branchPred.BTBHitRatio           0.500083                       # BTB Hit Ratio (Ratio)
system.cpu0.branchPred.BTBMispredicted           1154                       # Number BTB mispredictions. No target found or target wrong (Count)
system.cpu0.branchPred.indirectLookups            839                       # Number of indirect predictor lookups. (Count)
system.cpu0.branchPred.indirectHits               145                       # Number of indirect target hits. (Count)
system.cpu0.branchPred.indirectMisses             694                       # Number of indirect misses. (Count)
system.cpu0.branchPred.indirectMispredicted            0                       # Number of mispredicted indirect branches. (Count)
system.cpu0.branchPred.btb.lookups::NoBranch          454      1.26%      1.26% # Number of BTB lookups (Count)
system.cpu0.branchPred.btb.lookups::Return         1504      4.17%      5.42% # Number of BTB lookups (Count)
system.cpu0.branchPred.btb.lookups::CallDirect         1663      4.61%     10.03% # Number of BTB lookups (Count)
system.cpu0.branchPred.btb.lookups::CallIndirect          306      0.85%     10.88% # Number of BTB lookups (Count)
system.cpu0.branchPred.btb.lookups::DirectCond        30046     83.23%     94.10% # Number of BTB lookups (Count)
system.cpu0.branchPred.btb.lookups::DirectUncond         1596      4.42%     98.52% # Number of BTB lookups (Count)
system.cpu0.branchPred.btb.lookups::IndirectCond            0      0.00%     98.52% # Number of BTB lookups (Count)
system.cpu0.branchPred.btb.lookups::IndirectUncond          533      1.48%    100.00% # Number of BTB lookups (Count)
system.cpu0.branchPred.btb.lookups::total        36102                       # Number of BTB lookups (Count)
system.cpu0.branchPred.btb.misses::NoBranch          163      0.90%      0.90% # Number of BTB misses (Count)
system.cpu0.branchPred.btb.misses::Return         1504      8.33%      9.24% # Number of BTB misses (Count)
system.cpu0.branchPred.btb.misses::CallDirect          386      2.14%     11.38% # Number of BTB misses (Count)
system.cpu0.branchPred.btb.misses::CallIndirect          306      1.70%     13.07% # Number of BTB misses (Count)
system.cpu0.branchPred.btb.misses::DirectCond        14800     82.00%     95.07% # Number of BTB misses (Count)
system.cpu0.branchPred.btb.misses::DirectUncond          356      1.97%     97.05% # Number of BTB misses (Count)
system.cpu0.branchPred.btb.misses::IndirectCond            0      0.00%     97.05% # Number of BTB misses (Count)
system.cpu0.branchPred.btb.misses::IndirectUncond          533      2.95%    100.00% # Number of BTB misses (Count)
system.cpu0.branchPred.btb.misses::total        18048                       # Number of BTB misses (Count)
system.cpu0.branchPred.btb.updates::NoBranch            0      0.00%      0.00% # Number of BTB updates (Count)
system.cpu0.branchPred.btb.updates::Return            0      0.00%      0.00% # Number of BTB updates (Count)
system.cpu0.branchPred.btb.updates::CallDirect          263     14.09%     14.09% # Number of BTB updates (Count)
system.cpu0.branchPred.btb.updates::CallIndirect            0      0.00%     14.09% # Number of BTB updates (Count)
system.cpu0.branchPred.btb.updates::DirectCond         1342     71.92%     86.01% # Number of BTB updates (Count)
system.cpu0.branchPred.btb.updates::DirectUncond          261     13.99%    100.00% # Number of BTB updates (Count)
system.cpu0.branchPred.btb.updates::IndirectCond            0      0.00%    100.00% # Number of BTB updates (Count)
system.cpu0.branchPred.btb.updates::IndirectUncond            0      0.00%    100.00% # Number of BTB updates (Count)
system.cpu0.branchPred.btb.updates::total         1866                       # Number of BTB updates (Count)
system.cpu0.branchPred.btb.mispredict::NoBranch            0      0.00%      0.00% # Number of BTB mispredictions. No target found or target wrong. (Count)
system.cpu0.branchPred.btb.mispredict::Return            0      0.00%      0.00% # Number of BTB mispredictions. No target found or target wrong. (Count)
system.cpu0.branchPred.btb.mispredict::CallDirect          263     14.09%     14.09% # Number of BTB mispredictions. No target found or target wrong. (Count)
system.cpu0.branchPred.btb.mispredict::CallIndirect            0      0.00%     14.09% # Number of BTB mispredictions. No target found or target wrong. (Count)
system.cpu0.branchPred.btb.mispredict::DirectCond         1342     71.92%     86.01% # Number of BTB mispredictions. No target found or target wrong. (Count)
system.cpu0.branchPred.btb.mispredict::DirectUncond          261     13.99%    100.00% # Number of BTB mispredictions. No target found or target wrong. (Count)
system.cpu0.branchPred.btb.mispredict::IndirectCond            0      0.00%    100.00% # Number of BTB mispredictions. No target found or target wrong. (Count)
system.cpu0.branchPred.btb.mispredict::IndirectUncond            0      0.00%    100.00% # Number of BTB mispredictions. No target found or target wrong. (Count)
system.cpu0.branchPred.btb.mispredict::total         1866                       # Number of BTB mispredictions. No target found or target wrong. (Count)
system.cpu0.branchPred.btb.power_state.pwrStateResidencyTicks::UNDEFINED   1342960500                       # Cumulative time (in ticks) in various power states (Tick)
system.cpu0.branchPred.indirectBranchPred.lookups          839                       # Number of lookups (Count)
system.cpu0.branchPred.indirectBranchPred.hits          145                       # Number of hits of a tag (Count)
system.cpu0.branchPred.indirectBranchPred.misses          694                       # Number of misses (Count)
system.cpu0.branchPred.indirectBranchPred.targetRecords          282                       # Number of targets that where recorded/installed in the cache (Count)
system.cpu0.branchPred.indirectBranchPred.indirectRecords         1121                       # Number of indirect branches/calls recorded in the indirect hist (Count)
system.cpu0.branchPred.indirectBranchPred.speculativeOverflows            1                       # Number of times more than the allowed capacity for speculative branches/calls where in flight and destroy the path history (Count)
system.cpu0.branchPred.ras.pushes                2620                       # Number of times a PC was pushed onto the RAS (Count)
system.cpu0.branchPred.ras.pops                  2615                       # Number of times a PC was poped from the RAS (Count)
system.cpu0.branchPred.ras.squashes              1762                       # Number of times the stack operation was squashed due to wrong speculation. (Count)
system.cpu0.branchPred.ras.used                   853                       # Number of times the RAS is the provider (Count)
system.cpu0.branchPred.ras.correct                853                       # Number of times the RAS is the provider and the prediction is correct (Count)
system.cpu0.branchPred.ras.incorrect                0                       # Number of times the RAS is the provider and the prediction is wrong (Count)
system.cpu0.commit.commitSquashedInsts         103009                       # The number of squashed insts skipped by commit (Count)
system.cpu0.commit.commitNonSpecStalls             60                       # The number of times commit has been forced to stall to communicate backwards (Count)
system.cpu0.commit.branchMispredicts             2382                       # The number of times a branch was mispredicted (Count)
system.cpu0.commit.numCommittedDist::samples       303107                       # Number of insts commited each cycle (Count)
system.cpu0.commit.numCommittedDist::mean     0.662195                       # Number of insts commited each cycle (Count)
system.cpu0.commit.numCommittedDist::stdev     1.839718                       # Number of insts commited each cycle (Count)
system.cpu0.commit.numCommittedDist::underflows            0      0.00%      0.00% # Number of insts commited each cycle (Count)
system.cpu0.commit.numCommittedDist::0         252556     83.32%     83.32% # Number of insts commited each cycle (Count)
system.cpu0.commit.numCommittedDist::1          11448      3.78%     87.10% # Number of insts commited each cycle (Count)
system.cpu0.commit.numCommittedDist::2           8368      2.76%     89.86% # Number of insts commited each cycle (Count)
system.cpu0.commit.numCommittedDist::3           9099      3.00%     92.86% # Number of insts commited each cycle (Count)
system.cpu0.commit.numCommittedDist::4           3472      1.15%     94.01% # Number of insts commited each cycle (Count)
system.cpu0.commit.numCommittedDist::5           3510      1.16%     95.17% # Number of insts commited each cycle (Count)
system.cpu0.commit.numCommittedDist::6           1175      0.39%     95.55% # Number of insts commited each cycle (Count)
system.cpu0.commit.numCommittedDist::7           1085      0.36%     95.91% # Number of insts commited each cycle (Count)
system.cpu0.commit.numCommittedDist::8          12394      4.09%    100.00% # Number of insts commited each cycle (Count)
system.cpu0.commit.numCommittedDist::overflows            0      0.00%    100.00% # Number of insts commited each cycle (Count)
system.cpu0.commit.numCommittedDist::min_value            0                       # Number of insts commited each cycle (Count)
system.cpu0.commit.numCommittedDist::max_value            8                       # Number of insts commited each cycle (Count)
system.cpu0.commit.numCommittedDist::total       303107                       # Number of insts commited each cycle (Count)
system.cpu0.commit.amos                             0                       # Number of atomic instructions committed (Count)
system.cpu0.commit.membars                         28                       # Number of memory barriers committed (Count)
system.cpu0.commit.functionCalls                  858                       # Number of function calls committed. (Count)
system.cpu0.commit.committedInstType_0::No_OpClass         1287      0.64%      0.64% # Class of committed instruction (Count)
system.cpu0.commit.committedInstType_0::IntAlu       152032     75.74%     76.39% # Class of committed instruction (Count)
system.cpu0.commit.committedInstType_0::IntMult           15      0.01%     76.39% # Class of committed instruction (Count)
system.cpu0.commit.committedInstType_0::IntDiv         1647      0.82%     77.21% # Class of committed instruction (Count)
system.cpu0.commit.committedInstType_0::FloatAdd          355      0.18%     77.39% # Class of committed instruction (Count)
system.cpu0.commit.committedInstType_0::FloatCmp            0      0.00%     77.39% # Class of committed instruction (Count)
system.cpu0.commit.committedInstType_0::FloatCvt           32      0.02%     77.41% # Class of committed instruction (Count)
system.cpu0.commit.committedInstType_0::FloatMult            0      0.00%     77.41% # Class of committed instruction (Count)
system.cpu0.commit.committedInstType_0::FloatMultAcc            0      0.00%     77.41% # Class of committed instruction (Count)
system.cpu0.commit.committedInstType_0::FloatDiv            0      0.00%     77.41% # Class of committed instruction (Count)
system.cpu0.commit.committedInstType_0::FloatMisc            0      0.00%     77.41% # Class of committed instruction (Count)
system.cpu0.commit.committedInstType_0::FloatSqrt            0      0.00%     77.41% # Class of committed instruction (Count)
system.cpu0.commit.committedInstType_0::SimdAdd          474      0.24%     77.64% # Class of committed instruction (Count)
system.cpu0.commit.committedInstType_0::SimdAddAcc            0      0.00%     77.64% # Class of committed instruction (Count)
system.cpu0.commit.committedInstType_0::SimdAlu         1063      0.53%     78.17% # Class of committed instruction (Count)
system.cpu0.commit.committedInstType_0::SimdCmp            0      0.00%     78.17% # Class of committed instruction (Count)
system.cpu0.commit.committedInstType_0::SimdCvt         1066      0.53%     78.70% # Class of committed instruction (Count)
system.cpu0.commit.committedInstType_0::SimdMisc          972      0.48%     79.19% # Class of committed instruction (Count)
system.cpu0.commit.committedInstType_0::SimdMult            0      0.00%     79.19% # Class of committed instruction (Count)
system.cpu0.commit.committedInstType_0::SimdMultAcc            0      0.00%     79.19% # Class of committed instruction (Count)
system.cpu0.commit.committedInstType_0::SimdMatMultAcc            0      0.00%     79.19% # Class of committed instruction (Count)
system.cpu0.commit.committedInstType_0::SimdShift          367      0.18%     79.37% # Class of committed instruction (Count)
system.cpu0.commit.committedInstType_0::SimdShiftAcc            0      0.00%     79.37% # Class of committed instruction (Count)
system.cpu0.commit.committedInstType_0::SimdDiv            0      0.00%     79.37% # Class of committed instruction (Count)
system.cpu0.commit.committedInstType_0::SimdSqrt            0      0.00%     79.37% # Class of committed instruction (Count)
system.cpu0.commit.committedInstType_0::SimdFloatAdd            0      0.00%     79.37% # Class of committed instruction (Count)
system.cpu0.commit.committedInstType_0::SimdFloatAlu            0      0.00%     79.37% # Class of committed instruction (Count)
system.cpu0.commit.committedInstType_0::SimdFloatCmp            0      0.00%     79.37% # Class of committed instruction (Count)
system.cpu0.commit.committedInstType_0::SimdFloatCvt            0      0.00%     79.37% # Class of committed instruction (Count)
system.cpu0.commit.committedInstType_0::SimdFloatDiv            0      0.00%     79.37% # Class of committed instruction (Count)
system.cpu0.commit.committedInstType_0::SimdFloatMisc            0      0.00%     79.37% # Class of committed instruction (Count)
system.cpu0.commit.committedInstType_0::SimdFloatMult            0      0.00%     79.37% # Class of committed instruction (Count)
system.cpu0.commit.committedInstType_0::SimdFloatMultAcc            0      0.00%     79.37% # Class of committed instruction (Count)
system.cpu0.commit.committedInstType_0::SimdFloatMatMultAcc            0      0.00%     79.37% # Class of committed instruction (Count)
system.cpu0.commit.committedInstType_0::SimdFloatSqrt            0      0.00%     79.37% # Class of committed instruction (Count)
system.cpu0.commit.committedInstType_0::SimdReduceAdd            0      0.00%     79.37% # Class of committed instruction (Count)
system.cpu0.commit.committedInstType_0::SimdReduceAlu            0      0.00%     79.37% # Class of committed instruction (Count)
system.cpu0.commit.committedInstType_0::SimdReduceCmp            0      0.00%     79.37% # Class of committed instruction (Count)
system.cpu0.commit.committedInstType_0::SimdFloatReduceAdd            0      0.00%     79.37% # Class of committed instruction (Count)
system.cpu0.commit.committedInstType_0::SimdFloatReduceCmp            0      0.00%     79.37% # Class of committed instruction (Count)
system.cpu0.commit.committedInstType_0::SimdAes            0      0.00%     79.37% # Class of committed instruction (Count)
system.cpu0.commit.committedInstType_0::SimdAesMix            0      0.00%     79.37% # Class of committed instruction (Count)
system.cpu0.commit.committedInstType_0::SimdSha1Hash            0      0.00%     79.37% # Class of committed instruction (Count)
system.cpu0.commit.committedInstType_0::SimdSha1Hash2            0      0.00%     79.37% # Class of committed instruction (Count)
system.cpu0.commit.committedInstType_0::SimdSha256Hash            0      0.00%     79.37% # Class of committed instruction (Count)
system.cpu0.commit.committedInstType_0::SimdSha256Hash2            0      0.00%     79.37% # Class of committed instruction (Count)
system.cpu0.commit.committedInstType_0::SimdShaSigma2            0      0.00%     79.37% # Class of committed instruction (Count)
system.cpu0.commit.committedInstType_0::SimdShaSigma3            0      0.00%     79.37% # Class of committed instruction (Count)
system.cpu0.commit.committedInstType_0::SimdPredAlu            0      0.00%     79.37% # Class of committed instruction (Count)
system.cpu0.commit.committedInstType_0::Matrix            0      0.00%     79.37% # Class of committed instruction (Count)
system.cpu0.commit.committedInstType_0::MatrixMov            0      0.00%     79.37% # Class of committed instruction (Count)
system.cpu0.commit.committedInstType_0::MatrixOP            0      0.00%     79.37% # Class of committed instruction (Count)
system.cpu0.commit.committedInstType_0::MemRead        26879     13.39%     92.76% # Class of committed instruction (Count)
system.cpu0.commit.committedInstType_0::MemWrite        12309      6.13%     98.89% # Class of committed instruction (Count)
system.cpu0.commit.committedInstType_0::FloatMemRead         1272      0.63%     99.53% # Class of committed instruction (Count)
system.cpu0.commit.committedInstType_0::FloatMemWrite          946      0.47%    100.00% # Class of committed instruction (Count)
system.cpu0.commit.committedInstType_0::IprAccess            0      0.00%    100.00% # Class of committed instruction (Count)
system.cpu0.commit.committedInstType_0::InstPrefetch            0      0.00%    100.00% # Class of committed instruction (Count)
system.cpu0.commit.committedInstType_0::VectorUnitStrideLoad            0      0.00%    100.00% # Class of committed instruction (Count)
system.cpu0.commit.committedInstType_0::VectorUnitStrideStore            0      0.00%    100.00% # Class of committed instruction (Count)
system.cpu0.commit.committedInstType_0::VectorUnitStrideMaskLoad            0      0.00%    100.00% # Class of committed instruction (Count)
system.cpu0.commit.committedInstType_0::VectorUnitStrideMaskStore            0      0.00%    100.00% # Class of committed instruction (Count)
system.cpu0.commit.committedInstType_0::VectorStridedLoad            0      0.00%    100.00% # Class of committed instruction (Count)
system.cpu0.commit.committedInstType_0::VectorStridedStore            0      0.00%    100.00% # Class of committed instruction (Count)
system.cpu0.commit.committedInstType_0::VectorIndexedLoad            0      0.00%    100.00% # Class of committed instruction (Count)
system.cpu0.commit.committedInstType_0::VectorIndexedStore            0      0.00%    100.00% # Class of committed instruction (Count)
system.cpu0.commit.committedInstType_0::VectorUnitStrideFaultOnlyFirstLoad            0      0.00%    100.00% # Class of committed instruction (Count)
system.cpu0.commit.committedInstType_0::VectorWholeRegisterLoad            0      0.00%    100.00% # Class of committed instruction (Count)
system.cpu0.commit.committedInstType_0::VectorWholeRegisterStore            0      0.00%    100.00% # Class of committed instruction (Count)
system.cpu0.commit.committedInstType_0::VectorIntegerArith            0      0.00%    100.00% # Class of committed instruction (Count)
system.cpu0.commit.committedInstType_0::VectorFloatArith            0      0.00%    100.00% # Class of committed instruction (Count)
system.cpu0.commit.committedInstType_0::VectorFloatConvert            0      0.00%    100.00% # Class of committed instruction (Count)
system.cpu0.commit.committedInstType_0::VectorIntegerReduce            0      0.00%    100.00% # Class of committed instruction (Count)
system.cpu0.commit.committedInstType_0::VectorFloatReduce            0      0.00%    100.00% # Class of committed instruction (Count)
system.cpu0.commit.committedInstType_0::VectorMisc            0      0.00%    100.00% # Class of committed instruction (Count)
system.cpu0.commit.committedInstType_0::VectorIntegerExtension            0      0.00%    100.00% # Class of committed instruction (Count)
system.cpu0.commit.committedInstType_0::VectorConfig            0      0.00%    100.00% # Class of committed instruction (Count)
system.cpu0.commit.committedInstType_0::total       200716                       # Class of committed instruction (Count)
system.cpu0.commit.commitEligibleSamples        12394                       # number cycles where commit BW limit reached (Cycle)
system.cpu0.commitStats0.numInsts              109350                       # Number of instructions committed (thread level) (Count)
system.cpu0.commitStats0.numOps                200716                       # Number of ops (including micro ops) committed (thread level) (Count)
system.cpu0.commitStats0.numInstsNotNOP        109350                       # Number of instructions committed excluding NOPs or prefetches (Count)
system.cpu0.commitStats0.numOpsNotNOP          200716                       # Number of Ops (including micro ops) Simulated (Count)
system.cpu0.commitStats0.cpi                 4.018967                       # CPI: cycles per instruction (thread level) ((Cycle/Count))
system.cpu0.commitStats0.ipc                 0.248820                       # IPC: instructions per cycle (thread level) ((Count/Cycle))
system.cpu0.commitStats0.numMemRefs             41406                       # Number of memory references committed (Count)
system.cpu0.commitStats0.numFpInsts              6819                       # Number of float instructions (Count)
system.cpu0.commitStats0.numIntInsts           194561                       # Number of integer instructions (Count)
system.cpu0.commitStats0.numLoadInsts           28151                       # Number of load instructions (Count)
system.cpu0.commitStats0.numStoreInsts          13255                       # Number of store instructions (Count)
system.cpu0.commitStats0.numVecInsts                0                       # Number of vector instructions (Count)
system.cpu0.commitStats0.committedInstType::No_OpClass         1287      0.64%      0.64% # Class of committed instruction. (Count)
system.cpu0.commitStats0.committedInstType::IntAlu       152032     75.74%     76.39% # Class of committed instruction. (Count)
system.cpu0.commitStats0.committedInstType::IntMult           15      0.01%     76.39% # Class of committed instruction. (Count)
system.cpu0.commitStats0.committedInstType::IntDiv         1647      0.82%     77.21% # Class of committed instruction. (Count)
system.cpu0.commitStats0.committedInstType::FloatAdd          355      0.18%     77.39% # Class of committed instruction. (Count)
system.cpu0.commitStats0.committedInstType::FloatCmp            0      0.00%     77.39% # Class of committed instruction. (Count)
system.cpu0.commitStats0.committedInstType::FloatCvt           32      0.02%     77.41% # Class of committed instruction. (Count)
system.cpu0.commitStats0.committedInstType::FloatMult            0      0.00%     77.41% # Class of committed instruction. (Count)
system.cpu0.commitStats0.committedInstType::FloatMultAcc            0      0.00%     77.41% # Class of committed instruction. (Count)
system.cpu0.commitStats0.committedInstType::FloatDiv            0      0.00%     77.41% # Class of committed instruction. (Count)
system.cpu0.commitStats0.committedInstType::FloatMisc            0      0.00%     77.41% # Class of committed instruction. (Count)
system.cpu0.commitStats0.committedInstType::FloatSqrt            0      0.00%     77.41% # Class of committed instruction. (Count)
system.cpu0.commitStats0.committedInstType::SimdAdd          474      0.24%     77.64% # Class of committed instruction. (Count)
system.cpu0.commitStats0.committedInstType::SimdAddAcc            0      0.00%     77.64% # Class of committed instruction. (Count)
system.cpu0.commitStats0.committedInstType::SimdAlu         1063      0.53%     78.17% # Class of committed instruction. (Count)
system.cpu0.commitStats0.committedInstType::SimdCmp            0      0.00%     78.17% # Class of committed instruction. (Count)
system.cpu0.commitStats0.committedInstType::SimdCvt         1066      0.53%     78.70% # Class of committed instruction. (Count)
system.cpu0.commitStats0.committedInstType::SimdMisc          972      0.48%     79.19% # Class of committed instruction. (Count)
system.cpu0.commitStats0.committedInstType::SimdMult            0      0.00%     79.19% # Class of committed instruction. (Count)
system.cpu0.commitStats0.committedInstType::SimdMultAcc            0      0.00%     79.19% # Class of committed instruction. (Count)
system.cpu0.commitStats0.committedInstType::SimdMatMultAcc            0      0.00%     79.19% # Class of committed instruction. (Count)
system.cpu0.commitStats0.committedInstType::SimdShift          367      0.18%     79.37% # Class of committed instruction. (Count)
system.cpu0.commitStats0.committedInstType::SimdShiftAcc            0      0.00%     79.37% # Class of committed instruction. (Count)
system.cpu0.commitStats0.committedInstType::SimdDiv            0      0.00%     79.37% # Class of committed instruction. (Count)
system.cpu0.commitStats0.committedInstType::SimdSqrt            0      0.00%     79.37% # Class of committed instruction. (Count)
system.cpu0.commitStats0.committedInstType::SimdFloatAdd            0      0.00%     79.37% # Class of committed instruction. (Count)
system.cpu0.commitStats0.committedInstType::SimdFloatAlu            0      0.00%     79.37% # Class of committed instruction. (Count)
system.cpu0.commitStats0.committedInstType::SimdFloatCmp            0      0.00%     79.37% # Class of committed instruction. (Count)
system.cpu0.commitStats0.committedInstType::SimdFloatCvt            0      0.00%     79.37% # Class of committed instruction. (Count)
system.cpu0.commitStats0.committedInstType::SimdFloatDiv            0      0.00%     79.37% # Class of committed instruction. (Count)
system.cpu0.commitStats0.committedInstType::SimdFloatMisc            0      0.00%     79.37% # Class of committed instruction. (Count)
system.cpu0.commitStats0.committedInstType::SimdFloatMult            0      0.00%     79.37% # Class of committed instruction. (Count)
system.cpu0.commitStats0.committedInstType::SimdFloatMultAcc            0      0.00%     79.37% # Class of committed instruction. (Count)
system.cpu0.commitStats0.committedInstType::SimdFloatMatMultAcc            0      0.00%     79.37% # Class of committed instruction. (Count)
system.cpu0.commitStats0.committedInstType::SimdFloatSqrt            0      0.00%     79.37% # Class of committed instruction. (Count)
system.cpu0.commitStats0.committedInstType::SimdReduceAdd            0      0.00%     79.37% # Class of committed instruction. (Count)
system.cpu0.commitStats0.committedInstType::SimdReduceAlu            0      0.00%     79.37% # Class of committed instruction. (Count)
system.cpu0.commitStats0.committedInstType::SimdReduceCmp            0      0.00%     79.37% # Class of committed instruction. (Count)
system.cpu0.commitStats0.committedInstType::SimdFloatReduceAdd            0      0.00%     79.37% # Class of committed instruction. (Count)
system.cpu0.commitStats0.committedInstType::SimdFloatReduceCmp            0      0.00%     79.37% # Class of committed instruction. (Count)
system.cpu0.commitStats0.committedInstType::SimdAes            0      0.00%     79.37% # Class of committed instruction. (Count)
system.cpu0.commitStats0.committedInstType::SimdAesMix            0      0.00%     79.37% # Class of committed instruction. (Count)
system.cpu0.commitStats0.committedInstType::SimdSha1Hash            0      0.00%     79.37% # Class of committed instruction. (Count)
system.cpu0.commitStats0.committedInstType::SimdSha1Hash2            0      0.00%     79.37% # Class of committed instruction. (Count)
system.cpu0.commitStats0.committedInstType::SimdSha256Hash            0      0.00%     79.37% # Class of committed instruction. (Count)
system.cpu0.commitStats0.committedInstType::SimdSha256Hash2            0      0.00%     79.37% # Class of committed instruction. (Count)
system.cpu0.commitStats0.committedInstType::SimdShaSigma2            0      0.00%     79.37% # Class of committed instruction. (Count)
system.cpu0.commitStats0.committedInstType::SimdShaSigma3            0      0.00%     79.37% # Class of committed instruction. (Count)
system.cpu0.commitStats0.committedInstType::SimdPredAlu            0      0.00%     79.37% # Class of committed instruction. (Count)
system.cpu0.commitStats0.committedInstType::Matrix            0      0.00%     79.37% # Class of committed instruction. (Count)
system.cpu0.commitStats0.committedInstType::MatrixMov            0      0.00%     79.37% # Class of committed instruction. (Count)
system.cpu0.commitStats0.committedInstType::MatrixOP            0      0.00%     79.37% # Class of committed instruction. (Count)
system.cpu0.commitStats0.committedInstType::MemRead        26879     13.39%     92.76% # Class of committed instruction. (Count)
system.cpu0.commitStats0.committedInstType::MemWrite        12309      6.13%     98.89% # Class of committed instruction. (Count)
system.cpu0.commitStats0.committedInstType::FloatMemRead         1272      0.63%     99.53% # Class of committed instruction. (Count)
system.cpu0.commitStats0.committedInstType::FloatMemWrite          946      0.47%    100.00% # Class of committed instruction. (Count)
system.cpu0.commitStats0.committedInstType::IprAccess            0      0.00%    100.00% # Class of committed instruction. (Count)
system.cpu0.commitStats0.committedInstType::InstPrefetch            0      0.00%    100.00% # Class of committed instruction. (Count)
system.cpu0.commitStats0.committedInstType::VectorUnitStrideLoad            0      0.00%    100.00% # Class of committed instruction. (Count)
system.cpu0.commitStats0.committedInstType::VectorUnitStrideStore            0      0.00%    100.00% # Class of committed instruction. (Count)
system.cpu0.commitStats0.committedInstType::VectorUnitStrideMaskLoad            0      0.00%    100.00% # Class of committed instruction. (Count)
system.cpu0.commitStats0.committedInstType::VectorUnitStrideMaskStore            0      0.00%    100.00% # Class of committed instruction. (Count)
system.cpu0.commitStats0.committedInstType::VectorStridedLoad            0      0.00%    100.00% # Class of committed instruction. (Count)
system.cpu0.commitStats0.committedInstType::VectorStridedStore            0      0.00%    100.00% # Class of committed instruction. (Count)
system.cpu0.commitStats0.committedInstType::VectorIndexedLoad            0      0.00%    100.00% # Class of committed instruction. (Count)
system.cpu0.commitStats0.committedInstType::VectorIndexedStore            0      0.00%    100.00% # Class of committed instruction. (Count)
system.cpu0.commitStats0.committedInstType::VectorUnitStrideFaultOnlyFirstLoad            0      0.00%    100.00% # Class of committed instruction. (Count)
system.cpu0.commitStats0.committedInstType::VectorWholeRegisterLoad            0      0.00%    100.00% # Class of committed instruction. (Count)
system.cpu0.commitStats0.committedInstType::VectorWholeRegisterStore            0      0.00%    100.00% # Class of committed instruction. (Count)
system.cpu0.commitStats0.committedInstType::VectorIntegerArith            0      0.00%    100.00% # Class of committed instruction. (Count)
system.cpu0.commitStats0.committedInstType::VectorFloatArith            0      0.00%    100.00% # Class of committed instruction. (Count)
system.cpu0.commitStats0.committedInstType::VectorFloatConvert            0      0.00%    100.00% # Class of committed instruction. (Count)
system.cpu0.commitStats0.committedInstType::VectorIntegerReduce            0      0.00%    100.00% # Class of committed instruction. (Count)
system.cpu0.commitStats0.committedInstType::VectorFloatReduce            0      0.00%    100.00% # Class of committed instruction. (Count)
system.cpu0.commitStats0.committedInstType::VectorMisc            0      0.00%    100.00% # Class of committed instruction. (Count)
system.cpu0.commitStats0.committedInstType::VectorIntegerExtension            0      0.00%    100.00% # Class of committed instruction. (Count)
system.cpu0.commitStats0.committedInstType::VectorConfig            0      0.00%    100.00% # Class of committed instruction. (Count)
system.cpu0.commitStats0.committedInstType::total       200716                       # Class of committed instruction. (Count)
system.cpu0.commitStats0.committedControl::IsControl        20587                       # Class of control type instructions committed (Count)
system.cpu0.commitStats0.committedControl::IsDirectControl        19340                       # Class of control type instructions committed (Count)
system.cpu0.commitStats0.committedControl::IsIndirectControl         1195                       # Class of control type instructions committed (Count)
system.cpu0.commitStats0.committedControl::IsCondControl        17762                       # Class of control type instructions committed (Count)
system.cpu0.commitStats0.committedControl::IsUncondControl         2773                       # Class of control type instructions committed (Count)
system.cpu0.commitStats0.committedControl::IsCall          858                       # Class of control type instructions committed (Count)
system.cpu0.commitStats0.committedControl::IsReturn          853                       # Class of control type instructions committed (Count)
system.cpu0.decode.idleCycles                   76211                       # Number of cycles decode is idle (Cycle)
system.cpu0.decode.blockedCycles               190515                       # Number of cycles decode is blocked (Cycle)
system.cpu0.decode.runCycles                    40821                       # Number of cycles decode is running (Cycle)
system.cpu0.decode.unblockCycles                 7716                       # Number of cycles decode is unblocking (Cycle)
system.cpu0.decode.squashCycles                  2574                       # Number of cycles decode is squashing (Cycle)
system.cpu0.decode.branchResolved               12455                       # Number of times decode resolved a branch (Count)
system.cpu0.decode.branchMispred                  559                       # Number of times decode detected a branch misprediction (Count)
system.cpu0.decode.decodedInsts                328791                       # Number of instructions handled by decode (Count)
system.cpu0.decode.squashedInsts                 2914                       # Number of squashed instructions handled by decode (Count)
system.cpu0.executeStats0.numInsts             266265                       # Number of executed instructions (Count)
system.cpu0.executeStats0.numNop                    0                       # Number of nop insts executed (Count)
system.cpu0.executeStats0.numBranches           24320                       # Number of branches executed (Count)
system.cpu0.executeStats0.numLoadInsts          39824                       # Number of load instructions executed (Count)
system.cpu0.executeStats0.numStoreInsts         17202                       # Number of stores executed (Count)
system.cpu0.executeStats0.instRate           0.605872                       # Inst execution rate ((Count/Cycle))
system.cpu0.executeStats0.numCCRegReads        137157                       # Number of times the CC registers were read (Count)
system.cpu0.executeStats0.numCCRegWrites        94009                       # Number of times the CC registers were written (Count)
system.cpu0.executeStats0.numFpRegReads         16293                       # Number of times the floating registers were read (Count)
[...]
system.ruby.network.data_traffic_distribution.n4.n11            0                       (Unspecified)
system.ruby.network.data_traffic_distribution.n4.n12            0                       (Unspecified)
system.ruby.network.data_traffic_distribution.n4.n13            0                       (Unspecified)
system.ruby.network.data_traffic_distribution.n4.n14            0                       (Unspecified)
system.ruby.network.data_traffic_distribution.n4.n15            0                       (Unspecified)
system.ruby.network.data_traffic_distribution.n4.n2            0                       (Unspecified)
system.ruby.network.data_traffic_distribution.n4.n3            0                       (Unspecified)
system.ruby.network.data_traffic_distribution.n4.n4            0                       (Unspecified)
system.ruby.network.data_traffic_distribution.n4.n5            0                       (Unspecified)
system.ruby.network.data_traffic_distribution.n4.n6            0                       (Unspecified)
system.ruby.network.data_traffic_distribution.n4.n7            0                       (Unspecified)
system.ruby.network.data_traffic_distribution.n4.n8            0                       (Unspecified)
system.ruby.network.data_traffic_distribution.n4.n9            0                       (Unspecified)
system.ruby.network.data_traffic_distribution.n5.n0         3240                       (Unspecified)
system.ruby.network.data_traffic_distribution.n5.n1           90                       (Unspecified)
system.ruby.network.data_traffic_distribution.n5.n10            0                       (Unspecified)
system.ruby.network.data_traffic_distribution.n5.n11            0                       (Unspecified)
system.ruby.network.data_traffic_distribution.n5.n12            0                       (Unspecified)
system.ruby.network.data_traffic_distribution.n5.n13            0                       (Unspecified)
system.ruby.network.data_traffic_distribution.n5.n14            0                       (Unspecified)
system.ruby.network.data_traffic_distribution.n5.n15            0                       (Unspecified)
system.ruby.network.data_traffic_distribution.n5.n2            0                       (Unspecified)
system.ruby.network.data_traffic_distribution.n5.n3            0                       (Unspecified)
system.ruby.network.data_traffic_distribution.n5.n4            0                       (Unspecified)
system.ruby.network.data_traffic_distribution.n5.n5            0                       (Unspecified)
system.ruby.network.data_traffic_distribution.n5.n6            0                       (Unspecified)
system.ruby.network.data_traffic_distribution.n5.n7            0                       (Unspecified)
system.ruby.network.data_traffic_distribution.n5.n8            0                       (Unspecified)
system.ruby.network.data_traffic_distribution.n5.n9            0                       (Unspecified)
system.ruby.network.data_traffic_distribution.n6.n0         3216                       (Unspecified)
system.ruby.network.data_traffic_distribution.n6.n1            0                       (Unspecified)
system.ruby.network.data_traffic_distribution.n6.n10            0                       (Unspecified)
system.ruby.network.data_traffic_distribution.n6.n11            0                       (Unspecified)
system.ruby.network.data_traffic_distribution.n6.n12            0                       (Unspecified)
system.ruby.network.data_traffic_distribution.n6.n13            0                       (Unspecified)
system.ruby.network.data_traffic_distribution.n6.n14            0                       (Unspecified)
system.ruby.network.data_traffic_distribution.n6.n15            0                       (Unspecified)
system.ruby.network.data_traffic_distribution.n6.n2            9                       (Unspecified)
system.ruby.network.data_traffic_distribution.n6.n3            0                       (Unspecified)
system.ruby.network.data_traffic_distribution.n6.n4            0                       (Unspecified)
system.ruby.network.data_traffic_distribution.n6.n5            0                       (Unspecified)
system.ruby.network.data_traffic_distribution.n6.n6            0                       (Unspecified)
system.ruby.network.data_traffic_distribution.n6.n7          160                       (Unspecified)
system.ruby.network.data_traffic_distribution.n6.n8            0                       (Unspecified)
system.ruby.network.data_traffic_distribution.n6.n9            0                       (Unspecified)
system.ruby.network.data_traffic_distribution.n7.n0         3138                       (Unspecified)
system.ruby.network.data_traffic_distribution.n7.n1            0                       (Unspecified)
system.ruby.network.data_traffic_distribution.n7.n10            0                       (Unspecified)
system.ruby.network.data_traffic_distribution.n7.n11            2                       (Unspecified)
system.ruby.network.data_traffic_distribution.n7.n12            0                       (Unspecified)
system.ruby.network.data_traffic_distribution.n7.n13            0                       (Unspecified)
system.ruby.network.data_traffic_distribution.n7.n14            0                       (Unspecified)
system.ruby.network.data_traffic_distribution.n7.n15            0                       (Unspecified)
system.ruby.network.data_traffic_distribution.n7.n2            0                       (Unspecified)
system.ruby.network.data_traffic_distribution.n7.n3            0                       (Unspecified)
system.ruby.network.data_traffic_distribution.n7.n4            0                       (Unspecified)
system.ruby.network.data_traffic_distribution.n7.n5            0                       (Unspecified)
system.ruby.network.data_traffic_distribution.n7.n6           68                       (Unspecified)
system.ruby.network.data_traffic_distribution.n7.n7            0                       (Unspecified)
system.ruby.network.data_traffic_distribution.n7.n8            0                       (Unspecified)
system.ruby.network.data_traffic_distribution.n7.n9            0                       (Unspecified)
system.ruby.network.data_traffic_distribution.n8.n0         3131                       (Unspecified)
system.ruby.network.data_traffic_distribution.n8.n1            0                       (Unspecified)
system.ruby.network.data_traffic_distribution.n8.n10            0                       (Unspecified)
system.ruby.network.data_traffic_distribution.n8.n11            0                       (Unspecified)
system.ruby.network.data_traffic_distribution.n8.n12            4                       (Unspecified)
system.ruby.network.data_traffic_distribution.n8.n13            0                       (Unspecified)
system.ruby.network.data_traffic_distribution.n8.n14            0                       (Unspecified)
system.ruby.network.data_traffic_distribution.n8.n15            0                       (Unspecified)
system.ruby.network.data_traffic_distribution.n8.n2            0                       (Unspecified)
system.ruby.network.data_traffic_distribution.n8.n3            0                       (Unspecified)
system.ruby.network.data_traffic_distribution.n8.n4           15                       (Unspecified)
system.ruby.network.data_traffic_distribution.n8.n5            0                       (Unspecified)
system.ruby.network.data_traffic_distribution.n8.n6            0                       (Unspecified)
system.ruby.network.data_traffic_distribution.n8.n7            0                       (Unspecified)
system.ruby.network.data_traffic_distribution.n8.n8            0                       (Unspecified)
system.ruby.network.data_traffic_distribution.n8.n9            0                       (Unspecified)
system.ruby.network.data_traffic_distribution.n9.n0         3326                       (Unspecified)
system.ruby.network.data_traffic_distribution.n9.n1            0                       (Unspecified)
system.ruby.network.data_traffic_distribution.n9.n10           12                       (Unspecified)
system.ruby.network.data_traffic_distribution.n9.n11            0                       (Unspecified)
system.ruby.network.data_traffic_distribution.n9.n12            0                       (Unspecified)
system.ruby.network.data_traffic_distribution.n9.n13           19                       (Unspecified)
system.ruby.network.data_traffic_distribution.n9.n14            0                       (Unspecified)
system.ruby.network.data_traffic_distribution.n9.n15            0                       (Unspecified)
system.ruby.network.data_traffic_distribution.n9.n2            0                       (Unspecified)
system.ruby.network.data_traffic_distribution.n9.n3            0                       (Unspecified)
system.ruby.network.data_traffic_distribution.n9.n4            0                       (Unspecified)
system.ruby.network.data_traffic_distribution.n9.n5            6                       (Unspecified)
system.ruby.network.data_traffic_distribution.n9.n6            0                       (Unspecified)
system.ruby.network.data_traffic_distribution.n9.n7            0                       (Unspecified)
system.ruby.network.data_traffic_distribution.n9.n8           56                       (Unspecified)
system.ruby.network.data_traffic_distribution.n9.n9            0                       (Unspecified)
system.ruby.network.ext_in_link_utilization       796306                       (Unspecified)
system.ruby.network.ext_out_link_utilization       796304                       (Unspecified)
system.ruby.network.flit_network_latency |  1861664500                       | 11958986500                       |   225643000                       |     3490500                       |    24678500                       (Unspecified)
system.ruby.network.flit_queueing_latency |   222877000                       |  1801124000                       |    19265500                       |     1394000                       |     6416000                       (Unspecified)
system.ruby.network.flits_injected       |      175027     21.98%     21.98% |      574947     72.20%     94.18% |       38532      4.84%     99.02% |        1384      0.17%     99.19% |        6416      0.81%    100.00% (Unspecified)
system.ruby.network.flits_injected::total       796306                       (Unspecified)
system.ruby.network.flits_received       |      175027     21.98%     21.98% |      574946     72.20%     94.18% |       38531      4.84%     99.02% |        1384      0.17%     99.19% |        6416      0.81%    100.00% (Unspecified)
system.ruby.network.flits_received::total       796304                       (Unspecified)
system.ruby.network.int_link_utilization      2427595                       (Unspecified)
system.ruby.network.packet_network_latency |  1201944500                       |  2923562500                       |   225643000                       |     3490500                       |     7167000                       (Unspecified)
system.ruby.network.packet_queueing_latency |   173763000                       |   432908000                       |    19265500                       |     1394000                       |     1384000                       (Unspecified)
system.ruby.network.packets_injected     |      137879     43.06%     43.06% |      141023     44.04%     87.10% |       38532     12.03%     99.14% |        1384      0.43%     99.57% |        1384      0.43%    100.00% (Unspecified)
system.ruby.network.packets_injected::total       320202                       (Unspecified)
system.ruby.network.packets_received     |      137879     43.06%     43.06% |      141022     44.04%     87.10% |       38531     12.03%     99.14% |        1384      0.43%     99.57% |        1384      0.43%    100.00% (Unspecified)
system.ruby.network.packets_received::total       320200                       (Unspecified)
system.ruby.network.routers00.buffer_reads       788698                       (Unspecified)
system.ruby.network.routers00.buffer_writes       788698                       (Unspecified)
system.ruby.network.routers00.crossbar_activity       788698                       (Unspecified)
system.ruby.network.routers00.sw_input_arbiter_activity       950027                       (Unspecified)
system.ruby.network.routers00.sw_output_arbiter_activity       788698                       (Unspecified)
system.ruby.network.routers01.buffer_reads       361606                       (Unspecified)
system.ruby.network.routers01.buffer_writes       361606                       (Unspecified)
system.ruby.network.routers01.crossbar_activity       361606                       (Unspecified)
system.ruby.network.routers01.sw_input_arbiter_activity       367146                       (Unspecified)
system.ruby.network.routers01.sw_output_arbiter_activity       361606                       (Unspecified)
system.ruby.network.routers02.buffer_reads       247861                       (Unspecified)
system.ruby.network.routers02.buffer_writes       247861                       (Unspecified)
system.ruby.network.routers02.crossbar_activity       247861                       (Unspecified)
system.ruby.network.routers02.sw_input_arbiter_activity       250993                       (Unspecified)
system.ruby.network.routers02.sw_output_arbiter_activity       247861                       (Unspecified)
system.ruby.network.routers03.buffer_reads       128249                       (Unspecified)
system.ruby.network.routers03.buffer_writes       128249                       (Unspecified)
system.ruby.network.routers03.crossbar_activity       128249                       (Unspecified)
system.ruby.network.routers03.sw_input_arbiter_activity       128879                       (Unspecified)
system.ruby.network.routers03.sw_output_arbiter_activity       128249                       (Unspecified)
system.ruby.network.routers04.buffer_reads       380006                       (Unspecified)
system.ruby.network.routers04.buffer_writes       380006                       (Unspecified)
system.ruby.network.routers04.crossbar_activity       380006                       (Unspecified)
system.ruby.network.routers04.sw_input_arbiter_activity       484401                       (Unspecified)
system.ruby.network.routers04.sw_output_arbiter_activity       380006                       (Unspecified)
system.ruby.network.routers05.buffer_reads       144338                       (Unspecified)
system.ruby.network.routers05.buffer_writes       144338                       (Unspecified)
system.ruby.network.routers05.crossbar_activity       144338                       (Unspecified)
system.ruby.network.routers05.sw_input_arbiter_activity       149783                       (Unspecified)
system.ruby.network.routers05.sw_output_arbiter_activity       144338                       (Unspecified)
system.ruby.network.routers06.buffer_reads       122938                       (Unspecified)
system.ruby.network.routers06.buffer_writes       122938                       (Unspecified)
system.ruby.network.routers06.crossbar_activity       122938                       (Unspecified)
system.ruby.network.routers06.sw_input_arbiter_activity       126069                       (Unspecified)
system.ruby.network.routers06.sw_output_arbiter_activity       122938                       (Unspecified)
system.ruby.network.routers07.buffer_reads       103689                       (Unspecified)
system.ruby.network.routers07.buffer_writes       103689                       (Unspecified)
system.ruby.network.routers07.crossbar_activity       103689                       (Unspecified)
system.ruby.network.routers07.sw_input_arbiter_activity       104182                       (Unspecified)
system.ruby.network.routers07.sw_output_arbiter_activity       103689                       (Unspecified)
system.ruby.network.routers08.buffer_reads       255498                       (Unspecified)
system.ruby.network.routers08.buffer_writes       255498                       (Unspecified)
system.ruby.network.routers08.crossbar_activity       255498                       (Unspecified)
system.ruby.network.routers08.sw_input_arbiter_activity       317160                       (Unspecified)
system.ruby.network.routers08.sw_output_arbiter_activity       255498                       (Unspecified)
system.ruby.network.routers09.buffer_reads       123393                       (Unspecified)
system.ruby.network.routers09.buffer_writes       123393                       (Unspecified)
system.ruby.network.routers09.crossbar_activity       123393                       (Unspecified)
system.ruby.network.routers09.sw_input_arbiter_activity       129802                       (Unspecified)
system.ruby.network.routers09.sw_output_arbiter_activity       123393                       (Unspecified)
system.ruby.network.routers10.buffer_reads       100051                       (Unspecified)
system.ruby.network.routers10.buffer_writes       100051                       (Unspecified)
system.ruby.network.routers10.crossbar_activity       100051                       (Unspecified)
system.ruby.network.routers10.sw_input_arbiter_activity       103680                       (Unspecified)
system.ruby.network.routers10.sw_output_arbiter_activity       100051                       (Unspecified)
system.ruby.network.routers11.buffer_reads        80809                       (Unspecified)
system.ruby.network.routers11.buffer_writes        80809                       (Unspecified)
system.ruby.network.routers11.crossbar_activity        80809                       (Unspecified)
system.ruby.network.routers11.sw_input_arbiter_activity        81342                       (Unspecified)
system.ruby.network.routers11.sw_output_arbiter_activity        80809                       (Unspecified)
system.ruby.network.routers12.buffer_reads       130590                       (Unspecified)
system.ruby.network.routers12.buffer_writes       130590                       (Unspecified)
system.ruby.network.routers12.crossbar_activity       130590                       (Unspecified)
system.ruby.network.routers12.sw_input_arbiter_activity       138592                       (Unspecified)
system.ruby.network.routers12.sw_output_arbiter_activity       130590                       (Unspecified)
system.ruby.network.routers13.buffer_reads       104875                       (Unspecified)
system.ruby.network.routers13.buffer_writes       104875                       (Unspecified)
system.ruby.network.routers13.crossbar_activity       104875                       (Unspecified)
system.ruby.network.routers13.sw_input_arbiter_activity       111237                       (Unspecified)
system.ruby.network.routers13.sw_output_arbiter_activity       104875                       (Unspecified)
system.ruby.network.routers14.buffer_reads        85510                       (Unspecified)
system.ruby.network.routers14.buffer_writes        85510                       (Unspecified)
system.ruby.network.routers14.crossbar_activity        85510                       (Unspecified)
system.ruby.network.routers14.sw_input_arbiter_activity        89667                       (Unspecified)
system.ruby.network.routers14.sw_output_arbiter_activity        85510                       (Unspecified)
system.ruby.network.routers15.buffer_reads        65789                       (Unspecified)
system.ruby.network.routers15.buffer_writes        65789                       (Unspecified)
system.ruby.network.routers15.crossbar_activity        65789                       (Unspecified)
system.ruby.network.routers15.sw_input_arbiter_activity        66406                       (Unspecified)
system.ruby.network.routers15.sw_output_arbiter_activity        65789                       (Unspecified)

---------- End Simulation Statistics   ----------
